version 2
run A-0-20210216-22:43:15-3872
attr configname A
attr datetime 20210216-22:43:15
attr experiment A
attr inifile GwSimV3_2021.ini
attr iterationvars ""
attr iterationvarsf ""
attr measurement ""
attr network NetworkTormV2
attr processid 3872
attr repetition 0
attr replication #0
attr resultdir results
attr runnumber 0
attr seedset 0
param **.mobility.traceFile "\"AllPaths/mobPaths/A.movements\""
param **.numNodes 2
param **.application.dataGenerationInterval 1s
param **.application.dataSizeInBytes 10
param **.application.ttl 999999s
param **application.nodesThatGen false
param **application.nodesGenMsg "\"\""
param **application.startMultipleMsg true
param **application.numMultipleMsg 100
param **application.hopsListSize 50
param **.application.endGeneratingMsg 149s
param **.routingLayer "\"RoutingLqeGw\""
param **.routing.maximumCacheSize 5000byte
param **.routing.maximumHopCount 25
param **.routing.useTTL false
param **.routing.waitBFsend 0.1
param **.routing.max_age 999999s
param **.routing.gateway_list "\"\""
param **.routing.actual_gateway "\"\""
param **.routing.gwCheckPeriod 5s
param **.neighboring.resetGPeriod 999s
param **.wirelessIfc.wirelessRange 40m
param **.numNodes 2
param **.application.usedRNG 1
param **.application.dataGenerationInterval 1s
param **.application.dataSizeInBytes 10
param **.application.ttl 999999s
param **application.destinationAddr "\"Wf:00:00:00:00:02\""
param **application.destinationBTAddr "\"Bt:00:00:00:00:02\""
param **application.nodesThatGen true
param **application.nodesGenMsg "\"0\""
param **application.startMultipleMsg true
param **application.numMultipleMsg 100
param **application.hopsListSize 50
param **.application.endGeneratingMsg 999999s
param **.routingLayer "\"RoutingLqeGw\""
param **.routing.maximumCacheSize 5000byte
param **.routing.maximumHopCount 25
param **.routing.useTTL false
param **.routing.waitBFsend 0.1
param **.routing.max_age 999999s
param **.routing.gateway_list "\"\""
param **.routing.actual_gateway "\"\""
param **.routing.gwCheckPeriod 5s
param **.neighboring.antiEntropyInterval 500ms
param **.neighboring.maximumRandomBackoffDuration 1s
param **.neighboring.delayPerDataMsg 0.1
param **neighboring.usedRNG 2
param **.neighboring.GWAddr "\"Wf:00:00:00:00:02\""
param **.neighboring.sendWifiFirst true
param **.neighboring.max_age 999999s
param **.neighboring.max_absent_time 1s
param **.neighboring.maxLengthGraph 15
param **.wirelessIfc.wirelessRange 40m
param **.wirelessIfc.neighbourScanInterval 50ms
param **.wirelessIfc.bandwidthBitRate 100000bps
param **.wirelessIfc.wirelessHeaderSize 32byte
param **.wirelessIfc.minSSI -90
param **.wirelessIfc.limitQueueTime 400ms
param **.wirelessIfc.my_limit_rate 0bps
param **.bluetoothIfc.wirelessRange 40m
param **.bluetoothIfc.neighbourScanInterval 100ms
param **.bluetoothIfc.bandwidthBitRate 100000bps
param **.bluetoothIfc.wirelessHeaderSize 16byte
param **.bluetoothIfc.minSSI -90
param **.mobilityType "\"BonnMotionMobility\""
param **.mobility.traceFile "\"paths/Moves2.movements\""
param **.mobility.is3D false
param **.mobility.nodeId -1

vector 0 NetworkTormV2 neighbourhoodSize:vector ETV
attr source neighbourhoodSize
vector 1 NetworkTormV2 deliveryRatio:vector ETV
attr source sum(totalDataBytesReceived)/sum(totalDataBytesReceivableByAllNodes)
vector 2 NetworkTormV2 dataBytesReceivedSum:vector ETV
attr source sum(dataBytesReceived)
vector 3 NetworkTormV2 totalBytesReceivedSum:vector ETV
attr source sum(totalBytesReceived)
0	7	0.05	1
0	8	0.05	1
0	26	0.1	1
0	28	0.1	1
0	30	0.1	1
0	31	0.1	1
0	54	0.15	1
0	55	0.15	1
0	72	0.2	1
0	73	0.2	1
0	75	0.2	1
0	76	0.2	1
0	97	0.25	1
0	98	0.25	1
0	115	0.3	1
0	116	0.3	1
0	118	0.3	1
0	119	0.3	1
0	140	0.35	1
0	141	0.35	1
0	158	0.4	1
0	159	0.4	1
0	161	0.4	1
0	162	0.4	1
0	183	0.45	1
0	184	0.45	1
0	201	0.5	1
0	202	0.5	1
0	204	0.5	1
0	205	0.5	1
0	226	0.55	1
0	227	0.55	1
0	244	0.6	1
0	245	0.6	1
0	247	0.6	1
0	248	0.6	1
0	269	0.65	1
0	270	0.65	1
0	287	0.7	1
0	288	0.7	1
0	290	0.7	1
0	291	0.7	1
0	312	0.75	1
0	313	0.75	1
0	330	0.8	1
0	331	0.8	1
0	333	0.8	1
0	334	0.8	1
0	355	0.85	1
0	356	0.85	1
0	373	0.9	1
0	374	0.9	1
0	376	0.9	1
0	377	0.9	1
0	398	0.95	1
0	399	0.95	1
0	416	1	1
0	417	1	1
0	419	1	1
0	420	1	1
0	441	1.05	1
0	442	1.05	1
0	461	1.1	1
0	462	1.1	1
0	464	1.1	1
0	465	1.1	1
0	534	1.15	1
0	535	1.15	1
0	552	1.2	1
0	553	1.2	1
0	555	1.2	1
0	556	1.2	1
0	577	1.25	1
0	578	1.25	1
0	595	1.3	1
0	596	1.3	1
0	598	1.3	1
0	599	1.3	1
0	620	1.35	1
0	621	1.35	1
0	638	1.4	1
0	639	1.4	1
0	641	1.4	1
0	642	1.4	1
0	663	1.45	1
0	664	1.45	1
0	681	1.5	1
0	682	1.5	1
0	684	1.5	1
0	685	1.5	1
0	706	1.55	1
0	707	1.55	1
0	724	1.6	1
0	725	1.6	1
0	727	1.6	1
0	728	1.6	1
0	749	1.65	1
0	750	1.65	1
0	813	1.7	1
0	814	1.7	1
0	816	1.7	1
0	817	1.7	1
0	838	1.75	1
0	839	1.75	1
0	856	1.8	1
0	857	1.8	1
0	859	1.8	1
0	860	1.8	1
0	881	1.85	1
0	882	1.85	1
0	899	1.9	1
0	900	1.9	1
0	902	1.9	1
0	903	1.9	1
0	924	1.95	1
0	925	1.95	1
0	942	2	1
0	943	2	1
0	945	2	1
0	946	2	1
0	967	2.05	1
0	968	2.05	1
0	987	2.1	1
0	988	2.1	1
0	990	2.1	1
0	991	2.1	1
0	1014	2.15	1
0	1015	2.15	1
0	1032	2.2	1
0	1033	2.2	1
0	1035	2.2	1
0	1036	2.2	1
0	1103	2.25	1
0	1104	2.25	1
0	1121	2.3	1
0	1122	2.3	1
0	1124	2.3	1
0	1125	2.3	1
0	1146	2.35	1
0	1147	2.35	1
0	1164	2.4	1
0	1165	2.4	1
0	1167	2.4	1
0	1168	2.4	1
0	1189	2.45	1
0	1190	2.45	1
0	1207	2.5	1
0	1208	2.5	1
0	1210	2.5	1
0	1211	2.5	1
0	1232	2.55	1
0	1233	2.55	1
0	1250	2.6	1
0	1251	2.6	1
0	1253	2.6	1
0	1254	2.6	1
0	1275	2.65	1
0	1276	2.65	1
0	1293	2.7	1
0	1294	2.7	1
0	1296	2.7	1
0	1297	2.7	1
0	1318	2.75	1
0	1319	2.75	1
0	1382	2.8	1
0	1383	2.8	1
0	1385	2.8	1
0	1386	2.8	1
0	1407	2.85	1
0	1408	2.85	1
0	1425	2.9	1
0	1426	2.9	1
0	1428	2.9	1
0	1429	2.9	1
0	1450	2.95	1
0	1451	2.95	1
0	1468	3	1
0	1469	3	1
0	1471	3	1
0	1472	3	1
0	1493	3.05	1
0	1494	3.05	1
0	1513	3.1	1
0	1514	3.1	1
0	1516	3.1	1
0	1517	3.1	1
0	1540	3.15	1
0	1541	3.15	1
0	1558	3.2	1
0	1559	3.2	1
0	1561	3.2	1
0	1562	3.2	1
0	1583	3.25	1
0	1584	3.25	1
0	1601	3.3	1
0	1602	3.3	1
0	1604	3.3	1
0	1605	3.3	1
0	1672	3.35	1
0	1673	3.35	1
0	1690	3.4	1
0	1691	3.4	1
0	1693	3.4	1
0	1694	3.4	1
0	1715	3.45	1
0	1716	3.45	1
0	1733	3.5	1
0	1734	3.5	1
0	1736	3.5	1
0	1737	3.5	1
0	1758	3.55	1
0	1759	3.55	1
0	1776	3.6	1
0	1777	3.6	1
0	1779	3.6	1
0	1780	3.6	1
0	1801	3.65	1
0	1802	3.65	1
0	1819	3.7	1
0	1820	3.7	1
0	1822	3.7	1
0	1823	3.7	1
0	1844	3.75	1
0	1845	3.75	1
0	1862	3.8	1
0	1863	3.8	1
0	1865	3.8	1
0	1866	3.8	1
0	1887	3.85	1
0	1888	3.85	1
0	1951	3.9	1
0	1952	3.9	1
0	1954	3.9	1
0	1955	3.9	1
0	1976	3.95	1
0	1977	3.95	1
0	1994	4	1
0	1995	4	1
0	1997	4	1
0	1998	4	1
0	2019	4.05	1
0	2020	4.05	1
0	2039	4.1	1
0	2040	4.1	1
0	2042	4.1	1
0	2043	4.1	1
0	2066	4.15	1
0	2067	4.15	1
0	2084	4.2	1
0	2085	4.2	1
0	2087	4.2	1
0	2088	4.2	1
0	2109	4.25	1
0	2110	4.25	1
0	2127	4.3	1
0	2128	4.3	1
0	2130	4.3	1
0	2131	4.3	1
0	2152	4.35	1
0	2153	4.35	1
0	2170	4.4	1
0	2171	4.4	1
0	2173	4.4	1
0	2174	4.4	1
0	2241	4.45	1
0	2242	4.45	1
0	2259	4.5	1
0	2260	4.5	1
0	2262	4.5	1
0	2263	4.5	1
0	2284	4.55	1
0	2285	4.55	1
0	2302	4.6	1
0	2303	4.6	1
0	2305	4.6	1
0	2306	4.6	1
0	2327	4.65	1
0	2328	4.65	1
0	2345	4.7	1
0	2346	4.7	1
0	2348	4.7	1
0	2349	4.7	1
0	2370	4.75	1
0	2371	4.75	1
0	2388	4.8	1
0	2389	4.8	1
0	2391	4.8	1
0	2392	4.8	1
0	2413	4.85	1
0	2414	4.85	1
0	2431	4.9	1
0	2432	4.9	1
0	2434	4.9	1
0	2435	4.9	1
0	2456	4.95	1
0	2457	4.95	1
0	2522	5	1
0	2523	5	1
0	2525	5	1
0	2526	5	1
0	2547	5.05	1
0	2548	5.05	1
0	2567	5.1	1
0	2568	5.1	1
0	2570	5.1	1
0	2571	5.1	1
0	2594	5.15	1
0	2595	5.15	1
0	2612	5.2	1
0	2613	5.2	1
0	2615	5.2	1
0	2616	5.2	1
0	2637	5.25	1
0	2638	5.25	1
0	2655	5.3	1
0	2656	5.3	1
0	2658	5.3	1
0	2659	5.3	1
0	2680	5.35	1
0	2681	5.35	1
0	2698	5.4	1
0	2699	5.4	1
0	2701	5.4	1
0	2702	5.4	1
0	2723	5.45	1
0	2724	5.45	1
0	2741	5.5	1
0	2742	5.5	1
0	2744	5.5	1
0	2745	5.5	1
0	2812	5.55	1
0	2813	5.55	1
0	2830	5.6	1
0	2831	5.6	1
0	2833	5.6	1
0	2834	5.6	1
0	2855	5.65	1
0	2856	5.65	1
0	2873	5.7	1
0	2874	5.7	1
0	2876	5.7	1
0	2877	5.7	1
0	2898	5.75	1
0	2899	5.75	1
0	2916	5.8	1
0	2917	5.8	1
0	2919	5.8	1
0	2920	5.8	1
0	2941	5.85	1
0	2942	5.85	1
0	2959	5.9	1
0	2960	5.9	1
0	2962	5.9	1
0	2963	5.9	1
0	2984	5.95	1
0	2985	5.95	1
0	3004	6	1
0	3005	6	1
0	3007	6	1
0	3008	6	1
0	3029	6.05	1
0	3030	6.05	1
0	3095	6.1	1
0	3096	6.1	1
0	3098	6.1	1
0	3099	6.1	1
0	3122	6.15	1
0	3123	6.15	1
0	3140	6.2	1
0	3141	6.2	1
0	3143	6.2	1
0	3144	6.2	1
0	3165	6.25	1
0	3166	6.25	1
0	3183	6.3	1
0	3184	6.3	1
0	3186	6.3	1
0	3187	6.3	1
0	3208	6.35	1
0	3209	6.35	1
0	3226	6.4	1
0	3227	6.4	1
0	3229	6.4	1
0	3230	6.4	1
0	3251	6.45	1
0	3252	6.45	1
0	3269	6.5	1
0	3270	6.5	1
0	3272	6.5	1
0	3273	6.5	1
0	3294	6.55	1
0	3295	6.55	1
0	3312	6.6	1
0	3313	6.6	1
0	3315	6.6	1
0	3316	6.6	1
0	3383	6.65	1
0	3384	6.65	1
0	3401	6.7	1
0	3402	6.7	1
0	3404	6.7	1
0	3405	6.7	1
0	3426	6.75	1
0	3427	6.75	1
0	3444	6.8	1
0	3445	6.8	1
0	3447	6.8	1
0	3448	6.8	1
0	3469	6.85	1
0	3470	6.85	1
0	3487	6.9	1
0	3488	6.9	1
0	3490	6.9	1
0	3491	6.9	1
0	3512	6.95	1
0	3513	6.95	1
0	3532	7	1
0	3533	7	1
0	3535	7	1
0	3536	7	1
0	3557	7.05	1
0	3558	7.05	1
0	3577	7.1	1
0	3578	7.1	1
0	3580	7.1	1
0	3581	7.1	1
0	3604	7.15	1
0	3605	7.15	1
0	3668	7.2	1
0	3669	7.2	1
0	3671	7.2	1
0	3672	7.2	1
0	3693	7.25	1
0	3694	7.25	1
0	3711	7.3	1
0	3712	7.3	1
0	3714	7.3	1
0	3715	7.3	1
0	3736	7.35	1
0	3737	7.35	1
0	3754	7.4	1
0	3755	7.4	1
0	3757	7.4	1
0	3758	7.4	1
0	3779	7.45	1
0	3780	7.45	1
0	3797	7.5	1
0	3798	7.5	1
0	3800	7.5	1
0	3801	7.5	1
0	3822	7.55	1
0	3823	7.55	1
0	3840	7.6	1
0	3841	7.6	1
0	3843	7.6	1
0	3844	7.6	1
0	3865	7.65	1
0	3866	7.65	1
0	3883	7.7	1
0	3884	7.7	1
0	3886	7.7	1
0	3887	7.7	1
0	3954	7.75	1
0	3955	7.75	1
0	3972	7.8	1
0	3973	7.8	1
0	3975	7.8	1
0	3976	7.8	1
0	3997	7.85	1
0	3998	7.85	1
0	4015	7.9	1
0	4016	7.9	1
0	4018	7.9	1
0	4019	7.9	1
0	4040	7.95	1
0	4041	7.95	1
0	4060	8	1
0	4061	8	1
0	4063	8	1
0	4064	8	1
0	4085	8.05	1
0	4086	8.05	1
0	4105	8.1	1
0	4106	8.1	1
0	4108	8.1	1
0	4109	8.1	1
0	4132	8.15	1
0	4133	8.15	1
0	4150	8.2	1
0	4151	8.2	1
0	4153	8.2	1
0	4154	8.2	1
0	4175	8.25	1
0	4176	8.25	1
0	4239	8.3	1
0	4240	8.3	1
0	4242	8.3	1
0	4243	8.3	1
0	4264	8.35	1
0	4265	8.35	1
0	4282	8.4	1
0	4283	8.4	1
0	4285	8.4	1
0	4286	8.4	1
0	4307	8.45	1
0	4308	8.45	1
0	4325	8.5	1
0	4326	8.5	1
0	4328	8.5	1
0	4329	8.5	1
0	4350	8.55	1
0	4351	8.55	1
0	4368	8.6	1
0	4369	8.6	1
0	4371	8.6	1
0	4372	8.6	1
0	4393	8.65	1
0	4394	8.65	1
0	4411	8.7	1
0	4412	8.7	1
0	4414	8.7	1
0	4415	8.7	1
0	4436	8.75	1
0	4437	8.75	1
0	4454	8.8	1
0	4455	8.8	1
0	4457	8.8	1
0	4458	8.8	1
0	4525	8.85	1
0	4526	8.85	1
0	4543	8.9	1
0	4544	8.9	1
0	4546	8.9	1
0	4547	8.9	1
0	4568	8.95	1
0	4569	8.95	1
0	4588	9	1
0	4589	9	1
0	4591	9	1
0	4592	9	1
0	4613	9.05	1
0	4614	9.05	1
0	4633	9.1	1
0	4634	9.1	1
0	4636	9.1	1
0	4637	9.1	1
0	4660	9.15	1
0	4661	9.15	1
0	4678	9.2	1
0	4679	9.2	1
0	4681	9.2	1
0	4682	9.2	1
0	4703	9.25	1
0	4704	9.25	1
0	4721	9.3	1
0	4722	9.3	1
0	4724	9.3	1
0	4725	9.3	1
0	4746	9.35	1
0	4747	9.35	1
0	4810	9.4	1
0	4811	9.4	1
0	4813	9.4	1
0	4814	9.4	1
0	4835	9.45	1
0	4836	9.45	1
0	4853	9.5	1
0	4854	9.5	1
0	4856	9.5	1
0	4857	9.5	1
0	4878	9.55	1
0	4879	9.55	1
0	4896	9.6	1
0	4897	9.6	1
0	4899	9.6	1
0	4900	9.6	1
0	4921	9.65	1
0	4922	9.65	1
0	4939	9.7	1
0	4940	9.7	1
0	4942	9.7	1
0	4943	9.7	1
0	4964	9.75	1
0	4965	9.75	1
0	4982	9.8	1
0	4983	9.8	1
0	4985	9.8	1
0	4986	9.8	1
0	5007	9.85	1
0	5008	9.85	1
0	5025	9.9	1
0	5026	9.9	1
0	5028	9.9	1
0	5029	9.9	1
0	5096	9.95	1
0	5097	9.95	1
0	5116	10	1
0	5117	10	1
0	5119	10	1
0	5120	10	1
0	5141	10.05	1
0	5142	10.05	1
0	5161	10.1	1
0	5162	10.1	1
0	5164	10.1	1
0	5165	10.1	1
0	5188	10.15	1
0	5189	10.15	1
0	5206	10.2	1
0	5207	10.2	1
0	5209	10.2	1
0	5210	10.2	1
0	5231	10.25	1
0	5232	10.25	1
0	5249	10.3	1
0	5250	10.3	1
0	5252	10.3	1
0	5253	10.3	1
0	5274	10.35	1
0	5275	10.35	1
0	5292	10.4	1
0	5293	10.4	1
0	5295	10.4	1
0	5296	10.4	1
0	5317	10.45	1
0	5318	10.45	1
0	5439	10.5	1
0	5440	10.5	1
0	5442	10.5	1
0	5443	10.5	1
0	5518	10.55	1
0	5519	10.55	1
0	5608	10.6	1
0	5609	10.6	1
0	5611	10.6	1
0	5612	10.6	1
0	5669	10.65	1
0	5670	10.65	1
0	5687	10.7	1
0	5688	10.7	1
0	5690	10.7	1
0	5691	10.7	1
0	5712	10.75	1
0	5713	10.75	1
0	5730	10.8	1
0	5731	10.8	1
0	5733	10.8	1
0	5734	10.8	1
0	5755	10.85	1
0	5756	10.85	1
0	5773	10.9	1
0	5774	10.9	1
0	5776	10.9	1
0	5777	10.9	1
0	5798	10.95	1
0	5799	10.95	1
0	5818	11	1
0	5819	11	1
0	5821	11	1
0	5822	11	1
0	5889	11.05	1
0	5890	11.05	1
0	5909	11.1	1
0	5910	11.1	1
0	5912	11.1	1
0	5913	11.1	1
0	5937	11.15	1
0	5938	11.15	1
0	5955	11.2	1
0	5956	11.2	1
0	5958	11.2	1
0	5959	11.2	1
0	5980	11.25	1
0	5981	11.25	1
0	5998	11.3	1
0	5999	11.3	1
0	6001	11.3	1
0	6002	11.3	1
0	6023	11.35	1
0	6024	11.35	1
0	6041	11.4	1
0	6042	11.4	1
0	6044	11.4	1
0	6045	11.4	1
0	6066	11.45	1
0	6067	11.45	1
0	6084	11.5	1
0	6085	11.5	1
0	6087	11.5	1
0	6088	11.5	1
0	6109	11.55	1
0	6110	11.55	1
0	6194	11.6	1
0	6195	11.6	1
0	6197	11.6	1
0	6198	11.6	1
0	6219	11.65	1
0	6220	11.65	1
0	6237	11.7	1
0	6238	11.7	1
0	6240	11.7	1
0	6241	11.7	1
0	6262	11.75	1
0	6263	11.75	1
0	6280	11.8	1
0	6281	11.8	1
0	6283	11.8	1
0	6284	11.8	1
0	6305	11.85	1
0	6306	11.85	1
0	6323	11.9	1
0	6324	11.9	1
0	6326	11.9	1
0	6327	11.9	1
0	6348	11.95	1
0	6349	11.95	1
0	6367	12	1
0	6368	12	1
0	6370	12	1
0	6371	12	1
0	6392	12.05	1
0	6393	12.05	1
0	6412	12.1	1
0	6413	12.1	1
0	6415	12.1	1
0	6416	12.1	1
0	6507	12.15	1
0	6508	12.15	1
0	6525	12.2	1
0	6526	12.2	1
0	6528	12.2	1
0	6529	12.2	1
0	6550	12.25	1
0	6551	12.25	1
0	6568	12.3	1
0	6569	12.3	1
0	6571	12.3	1
0	6572	12.3	1
0	6593	12.35	1
0	6594	12.35	1
0	6611	12.4	1
0	6612	12.4	1
0	6614	12.4	1
0	6615	12.4	1
0	6636	12.45	1
0	6637	12.45	1
0	6654	12.5	1
0	6655	12.5	1
0	6657	12.5	1
0	6658	12.5	1
0	6679	12.55	1
0	6680	12.55	1
0	6697	12.6	1
0	6698	12.6	1
0	6700	12.6	1
0	6701	12.6	1
0	6722	12.65	1
0	6723	12.65	1
0	6786	12.7	1
0	6787	12.7	1
0	6789	12.7	1
0	6790	12.7	1
0	6811	12.75	1
0	6812	12.75	1
0	6829	12.8	1
0	6830	12.8	1
0	6832	12.8	1
0	6833	12.8	1
0	6854	12.85	1
0	6855	12.85	1
0	6872	12.9	1
0	6873	12.9	1
0	6875	12.9	1
0	6876	12.9	1
0	6897	12.95	1
0	6898	12.95	1
0	6915	13	1
0	6916	13	1
0	6918	13	1
0	6919	13	1
0	6940	13.05	1
0	6941	13.05	1
0	6960	13.1	1
0	6961	13.1	1
0	6963	13.1	1
0	6964	13.1	1
0	6988	13.15	1
0	6989	13.15	1
0	7006	13.2	1
0	7007	13.2	1
0	7009	13.2	1
0	7010	13.2	1
0	7098	13.25	1
0	7099	13.25	1
0	7116	13.3	1
0	7117	13.3	1
0	7119	13.3	1
0	7120	13.3	1
0	7141	13.35	1
0	7142	13.35	1
0	7159	13.4	1
0	7160	13.4	1
0	7162	13.4	1
0	7163	13.4	1
0	7184	13.45	1
0	7185	13.45	1
0	7202	13.5	1
0	7203	13.5	1
0	7205	13.5	1
0	7206	13.5	1
0	7227	13.55	1
0	7228	13.55	1
0	7245	13.6	1
0	7246	13.6	1
0	7248	13.6	1
0	7249	13.6	1
0	7270	13.65	1
0	7271	13.65	1
0	7288	13.7	1
0	7289	13.7	1
0	7291	13.7	1
0	7292	13.7	1
0	7313	13.75	1
0	7314	13.75	1
0	7377	13.8	1
0	7378	13.8	1
0	7380	13.8	1
0	7381	13.8	1
0	7402	13.85	1
0	7403	13.85	1
0	7420	13.9	1
0	7421	13.9	1
0	7423	13.9	1
0	7424	13.9	1
0	7445	13.95	1
0	7446	13.95	1
0	7463	14	1
0	7464	14	1
0	7466	14	1
0	7467	14	1
0	7488	14.05	1
0	7489	14.05	1
0	7508	14.1	1
0	7509	14.1	1
0	7511	14.1	1
0	7512	14.1	1
0	7536	14.15	1
0	7537	14.15	1
0	7554	14.2	1
0	7555	14.2	1
0	7557	14.2	1
0	7558	14.2	1
0	7579	14.25	1
0	7580	14.25	1
0	7597	14.3	1
0	7598	14.3	1
0	7600	14.3	1
0	7601	14.3	1
0	7689	14.35	1
0	7690	14.35	1
0	7707	14.4	1
0	7708	14.4	1
0	7710	14.4	1
0	7711	14.4	1
0	7732	14.45	1
0	7733	14.45	1
0	7750	14.5	1
0	7751	14.5	1
0	7753	14.5	1
0	7754	14.5	1
0	7775	14.55	1
0	7776	14.55	1
0	7793	14.6	1
0	7794	14.6	1
0	7796	14.6	1
0	7797	14.6	1
0	7818	14.65	1
0	7819	14.65	1
0	7836	14.7	1
0	7837	14.7	1
0	7839	14.7	1
0	7840	14.7	1
0	7861	14.75	1
0	7862	14.75	1
0	7879	14.8	1
0	7880	14.8	1
0	7882	14.8	1
0	7883	14.8	1
0	7904	14.85	1
0	7905	14.85	1
0	7968	14.9	1
0	7969	14.9	1
0	7971	14.9	1
0	7972	14.9	1
0	7993	14.95	1
0	7994	14.95	1
0	8011	15	1
0	8012	15	1
0	8014	15	1
0	8015	15	1
0	8036	15.05	1
0	8037	15.05	1
0	8056	15.1	1
0	8057	15.1	1
0	8059	15.1	1
0	8060	15.1	1
0	8084	15.15	1
0	8085	15.15	1
0	8102	15.2	1
0	8103	15.2	1
0	8105	15.2	1
0	8106	15.2	1
0	8127	15.25	1
0	8128	15.25	1
0	8145	15.3	1
0	8146	15.3	1
0	8148	15.3	1
0	8149	15.3	1
0	8170	15.35	1
0	8171	15.35	1
0	8188	15.4	1
0	8189	15.4	1
0	8191	15.4	1
0	8192	15.4	1
0	8280	15.45	1
0	8281	15.45	1
0	8298	15.5	1
0	8299	15.5	1
0	8301	15.5	1
0	8302	15.5	1
0	8323	15.55	1
0	8324	15.55	1
0	8341	15.6	1
0	8342	15.6	1
0	8344	15.6	1
0	8345	15.6	1
0	8366	15.65	1
0	8367	15.65	1
0	8384	15.7	1
0	8385	15.7	1
0	8387	15.7	1
0	8388	15.7	1
0	8409	15.75	1
0	8410	15.75	1
0	8427	15.8	1
0	8428	15.8	1
0	8430	15.8	1
0	8431	15.8	1
0	8452	15.85	1
0	8453	15.85	1
0	8470	15.9	1
0	8471	15.9	1
0	8473	15.9	1
0	8474	15.9	1
0	8495	15.95	1
0	8496	15.95	1
0	8560	16	1
0	8561	16	1
0	8563	16	1
0	8564	16	1
0	8585	16.05	1
0	8586	16.05	1
0	8605	16.1	1
0	8606	16.1	1
0	8608	16.1	1
0	8609	16.1	1
0	8633	16.15	1
0	8634	16.15	1
0	8651	16.2	1
0	8652	16.2	1
0	8654	16.2	1
0	8655	16.2	1
0	8676	16.25	1
0	8677	16.25	1
0	8694	16.3	1
0	8695	16.3	1
0	8697	16.3	1
0	8698	16.3	1
0	8719	16.35	1
0	8720	16.35	1
0	8737	16.4	1
0	8738	16.4	1
0	8740	16.4	1
0	8741	16.4	1
0	8762	16.45	1
0	8763	16.45	1
0	8780	16.5	1
0	8781	16.5	1
0	8783	16.5	1
0	8784	16.5	1
0	8872	16.55	1
0	8873	16.55	1
0	8890	16.6	1
0	8891	16.6	1
0	8893	16.6	1
0	8894	16.6	1
0	8915	16.65	1
0	8916	16.65	1
0	8933	16.7	1
0	8934	16.7	1
0	8936	16.7	1
0	8937	16.7	1
0	8958	16.75	1
0	8959	16.75	1
0	8976	16.8	1
0	8977	16.8	1
0	8979	16.8	1
0	8980	16.8	1
0	9001	16.85	1
0	9002	16.85	1
0	9019	16.9	1
0	9020	16.9	1
0	9022	16.9	1
0	9023	16.9	1
0	9044	16.95	1
0	9045	16.95	1
0	9063	17	1
0	9064	17	1
0	9066	17	1
0	9067	17	1
0	9088	17.05	1
0	9089	17.05	1
0	9154	17.1	1
0	9155	17.1	1
0	9157	17.1	1
0	9158	17.1	1
0	9182	17.15	1
0	9183	17.15	1
0	9200	17.2	1
0	9201	17.2	1
0	9203	17.2	1
0	9204	17.2	1
0	9225	17.25	1
0	9226	17.25	1
0	9243	17.3	1
0	9244	17.3	1
0	9246	17.3	1
0	9247	17.3	1
0	9268	17.35	1
0	9269	17.35	1
0	9286	17.4	1
0	9287	17.4	1
0	9289	17.4	1
0	9290	17.4	1
0	9311	17.45	1
0	9312	17.45	1
0	9329	17.5	1
0	9330	17.5	1
0	9332	17.5	1
0	9333	17.5	1
0	9354	17.55	1
0	9355	17.55	1
0	9372	17.6	1
0	9373	17.6	1
0	9375	17.6	1
0	9376	17.6	1
0	9464	17.65	1
0	9465	17.65	1
0	9482	17.7	1
0	9483	17.7	1
0	9485	17.7	1
0	9486	17.7	1
0	9507	17.75	1
0	9508	17.75	1
0	9525	17.8	1
0	9526	17.8	1
0	9528	17.8	1
0	9529	17.8	1
0	9550	17.85	1
0	9551	17.85	1
0	9568	17.9	1
0	9569	17.9	1
0	9571	17.9	1
0	9572	17.9	1
0	9593	17.95	1
0	9594	17.95	1
0	9611	18	1
0	9612	18	1
0	9614	18	1
0	9615	18	1
0	9636	18.05	1
0	9637	18.05	1
0	9656	18.1	1
0	9657	18.1	1
0	9659	18.1	1
0	9660	18.1	1
0	9684	18.15	1
0	9685	18.15	1
0	9769	18.2	1
0	9770	18.2	1
0	9772	18.2	1
0	9773	18.2	1
0	9794	18.25	1
0	9795	18.25	1
0	9812	18.3	1
0	9813	18.3	1
0	9815	18.3	1
0	9816	18.3	1
0	9837	18.35	1
0	9838	18.35	1
0	9855	18.4	1
0	9856	18.4	1
0	9858	18.4	1
0	9859	18.4	1
0	9880	18.45	1
0	9881	18.45	1
0	9898	18.5	1
0	9899	18.5	1
0	9901	18.5	1
0	9902	18.5	1
0	9923	18.55	1
0	9924	18.55	1
0	9941	18.6	1
0	9942	18.6	1
0	9944	18.6	1
0	9945	18.6	1
0	9966	18.65	1
0	9967	18.65	1
0	9984	18.7	1
0	9985	18.7	1
0	9987	18.7	1
0	9988	18.7	1
0	10055	18.75	1
0	10056	18.75	1
0	10073	18.8	1
0	10074	18.8	1
0	10076	18.8	1
0	10077	18.8	1
0	10098	18.85	1
0	10099	18.85	1
0	10116	18.9	1
0	10117	18.9	1
0	10119	18.9	1
0	10120	18.9	1
0	10141	18.95	1
0	10142	18.95	1
0	10159	19	1
0	10160	19	1
0	10162	19	1
0	10163	19	1
0	10184	19.05	1
0	10185	19.05	1
0	10204	19.1	1
0	10205	19.1	1
0	10207	19.1	1
0	10208	19.1	1
0	10232	19.15	1
0	10233	19.15	1
0	10250	19.2	1
0	10251	19.2	1
0	10253	19.2	1
0	10254	19.2	1
0	10275	19.25	1
0	10276	19.25	1
0	10360	19.3	1
0	10361	19.3	1
0	10363	19.3	1
0	10364	19.3	1
0	10385	19.35	1
0	10386	19.35	1
0	10403	19.4	1
0	10404	19.4	1
0	10406	19.4	1
0	10407	19.4	1
0	10428	19.45	1
0	10429	19.45	1
0	10446	19.5	1
0	10447	19.5	1
0	10449	19.5	1
0	10450	19.5	1
0	10471	19.55	1
0	10472	19.55	1
0	10489	19.6	1
0	10490	19.6	1
0	10492	19.6	1
0	10493	19.6	1
0	10514	19.65	1
0	10515	19.65	1
0	10532	19.7	1
0	10533	19.7	1
0	10535	19.7	1
0	10536	19.7	1
0	10557	19.75	1
0	10558	19.75	1
0	10575	19.8	1
0	10576	19.8	1
0	10578	19.8	1
0	10579	19.8	1
0	10646	19.85	1
0	10647	19.85	1
0	10664	19.9	1
0	10665	19.9	1
0	10667	19.9	1
0	10668	19.9	1
0	10689	19.95	1
0	10690	19.95	1
0	10707	20	1
0	10708	20	1
0	10710	20	1
0	10711	20	1
0	10732	20.05	1
0	10733	20.05	1
0	10752	20.1	1
0	10753	20.1	1
0	10755	20.1	1
0	10756	20.1	1
0	10780	20.15	1
0	10781	20.15	1
0	10798	20.2	1
0	10799	20.2	1
0	10801	20.2	1
0	10802	20.2	1
0	10823	20.25	1
0	10824	20.25	1
0	10841	20.3	1
0	10842	20.3	1
0	10844	20.3	1
0	10845	20.3	1
0	10866	20.35	1
0	10867	20.35	1
0	10951	20.4	1
0	10952	20.4	1
0	10954	20.4	1
0	10955	20.4	1
0	10976	20.45	1
0	10977	20.45	1
0	10994	20.5	1
0	10995	20.5	1
0	10997	20.5	1
0	10998	20.5	1
0	11019	20.55	1
0	11020	20.55	1
0	11037	20.6	1
0	11038	20.6	1
0	11040	20.6	1
0	11041	20.6	1
0	11062	20.65	1
0	11063	20.65	1
0	11080	20.7	1
0	11081	20.7	1
0	11083	20.7	1
0	11084	20.7	1
0	11105	20.75	1
0	11106	20.75	1
0	11123	20.8	1
0	11124	20.8	1
0	11126	20.8	1
0	11127	20.8	1
0	11148	20.85	1
0	11149	20.85	1
0	11166	20.9	1
0	11167	20.9	1
0	11169	20.9	1
0	11170	20.9	1
0	11237	20.95	1
0	11238	20.95	1
0	11256	21	1
0	11257	21	1
0	11259	21	1
0	11260	21	1
0	11281	21.05	1
0	11282	21.05	1
0	11301	21.1	1
0	11302	21.1	1
0	11304	21.1	1
0	11305	21.1	1
0	11329	21.15	1
0	11330	21.15	1
0	11347	21.2	1
0	11348	21.2	1
0	11350	21.2	1
0	11351	21.2	1
0	11372	21.25	1
0	11373	21.25	1
0	11390	21.3	1
0	11391	21.3	1
0	11393	21.3	1
0	11394	21.3	1
0	11415	21.35	1
0	11416	21.35	1
0	11433	21.4	1
0	11434	21.4	1
0	11436	21.4	1
0	11437	21.4	1
0	11458	21.45	1
0	11459	21.45	1
0	11543	21.5	1
0	11544	21.5	1
0	11546	21.5	1
0	11547	21.5	1
0	11568	21.55	1
0	11569	21.55	1
0	11586	21.6	1
0	11587	21.6	1
0	11589	21.6	1
0	11590	21.6	1
0	11611	21.65	1
0	11612	21.65	1
0	11629	21.7	1
0	11630	21.7	1
0	11632	21.7	1
0	11633	21.7	1
0	11654	21.75	1
0	11655	21.75	1
0	11672	21.8	1
0	11673	21.8	1
0	11675	21.8	1
0	11676	21.8	1
0	11697	21.85	1
0	11698	21.85	1
0	11715	21.9	1
0	11716	21.9	1
0	11718	21.9	1
0	11719	21.9	1
0	11740	21.95	1
0	11741	21.95	1
0	11759	22	1
0	11760	22	1
0	11762	22	1
0	11763	22	1
0	11830	22.05	1
0	11831	22.05	1
0	11850	22.1	1
0	11851	22.1	1
0	11853	22.1	1
0	11854	22.1	1
0	11878	22.15	1
0	11879	22.15	1
0	11896	22.2	1
0	11897	22.2	1
0	11899	22.2	1
0	11900	22.2	1
0	11921	22.25	1
0	11922	22.25	1
0	11939	22.3	1
0	11940	22.3	1
0	11942	22.3	1
0	11943	22.3	1
0	11964	22.35	1
0	11965	22.35	1
0	11982	22.4	1
0	11983	22.4	1
0	11985	22.4	1
0	11986	22.4	1
0	12007	22.45	1
0	12008	22.45	1
0	12025	22.5	1
0	12026	22.5	1
0	12028	22.5	1
0	12029	22.5	1
0	12050	22.55	1
0	12051	22.55	1
0	12135	22.6	1
0	12136	22.6	1
0	12138	22.6	1
0	12139	22.6	1
0	12160	22.65	1
0	12161	22.65	1
0	12178	22.7	1
0	12179	22.7	1
0	12181	22.7	1
0	12182	22.7	1
0	12203	22.75	1
0	12204	22.75	1
0	12221	22.8	1
0	12222	22.8	1
0	12224	22.8	1
0	12225	22.8	1
0	12246	22.85	1
0	12247	22.85	1
0	12264	22.9	1
0	12265	22.9	1
0	12267	22.9	1
0	12268	22.9	1
0	12289	22.95	1
0	12290	22.95	1
0	12307	23	1
0	12308	23	1
0	12310	23	1
0	12311	23	1
0	12332	23.05	1
0	12333	23.05	1
0	12352	23.1	1
0	12353	23.1	1
0	12355	23.1	1
0	12356	23.1	1
0	12447	23.15	1
0	12448	23.15	1
0	12465	23.2	1
0	12466	23.2	1
0	12468	23.2	1
0	12469	23.2	1
0	12490	23.25	1
0	12491	23.25	1
0	12508	23.3	1
0	12509	23.3	1
0	12511	23.3	1
0	12512	23.3	1
0	12533	23.35	1
0	12534	23.35	1
0	12551	23.4	1
0	12552	23.4	1
0	12554	23.4	1
0	12555	23.4	1
0	12576	23.45	1
0	12577	23.45	1
0	12594	23.5	1
0	12595	23.5	1
0	12597	23.5	1
0	12598	23.5	1
0	12619	23.55	1
0	12620	23.55	1
0	12637	23.6	1
0	12638	23.6	1
0	12640	23.6	1
0	12641	23.6	1
0	12662	23.65	1
0	12663	23.65	1
0	12726	23.7	1
0	12727	23.7	1
0	12729	23.7	1
0	12730	23.7	1
0	12751	23.75	1
0	12752	23.75	1
0	12769	23.8	1
0	12770	23.8	1
0	12772	23.8	1
0	12773	23.8	1
0	12794	23.85	1
0	12795	23.85	1
0	12812	23.9	1
0	12813	23.9	1
0	12815	23.9	1
0	12816	23.9	1
0	12837	23.95	1
0	12838	23.95	1
0	12855	24	1
0	12856	24	1
0	12858	24	1
0	12859	24	1
0	12880	24.05	1
0	12881	24.05	1
0	12900	24.1	1
0	12901	24.1	1
0	12903	24.1	1
0	12904	24.1	1
0	12928	24.15	1
0	12929	24.15	1
0	12946	24.2	1
0	12947	24.2	1
0	12949	24.2	1
0	12950	24.2	1
0	13038	24.25	1
0	13039	24.25	1
0	13056	24.3	1
0	13057	24.3	1
0	13059	24.3	1
0	13060	24.3	1
0	13081	24.35	1
0	13082	24.35	1
0	13099	24.4	1
0	13100	24.4	1
0	13102	24.4	1
0	13103	24.4	1
0	13124	24.45	1
0	13125	24.45	1
0	13142	24.5	1
0	13143	24.5	1
0	13145	24.5	1
0	13146	24.5	1
0	13167	24.55	1
0	13168	24.55	1
0	13185	24.6	1
0	13186	24.6	1
0	13188	24.6	1
0	13189	24.6	1
0	13210	24.65	1
0	13211	24.65	1
0	13228	24.7	1
0	13229	24.7	1
0	13231	24.7	1
0	13232	24.7	1
0	13253	24.75	1
0	13254	24.75	1
0	13317	24.8	1
0	13318	24.8	1
0	13320	24.8	1
0	13321	24.8	1
0	13342	24.85	1
0	13343	24.85	1
0	13360	24.9	1
0	13361	24.9	1
0	13363	24.9	1
0	13364	24.9	1
0	13385	24.95	1
0	13386	24.95	1
0	13403	25	1
0	13404	25	1
0	13406	25	1
0	13407	25	1
0	13428	25.05	1
0	13429	25.05	1
0	13448	25.1	1
0	13449	25.1	1
0	13451	25.1	1
0	13452	25.1	1
0	13476	25.15	1
0	13477	25.15	1
0	13494	25.2	1
0	13495	25.2	1
0	13497	25.2	1
0	13498	25.2	1
0	13519	25.25	1
0	13520	25.25	1
0	13537	25.3	1
0	13538	25.3	1
0	13540	25.3	1
0	13541	25.3	1
0	13629	25.35	1
0	13630	25.35	1
0	13647	25.4	1
0	13648	25.4	1
0	13650	25.4	1
0	13651	25.4	1
0	13672	25.45	1
0	13673	25.45	1
0	13690	25.5	1
0	13691	25.5	1
0	13693	25.5	1
0	13694	25.5	1
0	13715	25.55	1
0	13716	25.55	1
0	13733	25.6	1
0	13734	25.6	1
0	13736	25.6	1
0	13737	25.6	1
0	13758	25.65	1
0	13759	25.65	1
0	13776	25.7	1
0	13777	25.7	1
0	13779	25.7	1
0	13780	25.7	1
0	13801	25.75	1
0	13802	25.75	1
0	13819	25.8	1
0	13820	25.8	1
0	13822	25.8	1
0	13823	25.8	1
0	13844	25.85	1
0	13845	25.85	1
0	13908	25.9	1
0	13909	25.9	1
0	13911	25.9	1
0	13912	25.9	1
0	13933	25.95	1
0	13934	25.95	1
0	13952	26	1
0	13953	26	1
0	13955	26	1
0	13956	26	1
0	13977	26.05	1
0	13978	26.05	1
0	13997	26.1	1
0	13998	26.1	1
0	14000	26.1	1
0	14001	26.1	1
0	14025	26.15	1
0	14026	26.15	1
0	14043	26.2	1
0	14044	26.2	1
0	14046	26.2	1
0	14047	26.2	1
0	14068	26.25	1
0	14069	26.25	1
0	14086	26.3	1
0	14087	26.3	1
0	14089	26.3	1
0	14090	26.3	1
0	14111	26.35	1
0	14112	26.35	1
0	14129	26.4	1
0	14130	26.4	1
0	14132	26.4	1
0	14133	26.4	1
0	14221	26.45	1
0	14222	26.45	1
0	14239	26.5	1
0	14240	26.5	1
0	14242	26.5	1
0	14243	26.5	1
0	14264	26.55	1
0	14265	26.55	1
0	14282	26.6	1
0	14283	26.6	1
0	14285	26.6	1
0	14286	26.6	1
0	14307	26.65	1
0	14308	26.65	1
0	14325	26.7	1
0	14326	26.7	1
0	14328	26.7	1
0	14329	26.7	1
0	14350	26.75	1
0	14351	26.75	1
0	14368	26.8	1
0	14369	26.8	1
0	14371	26.8	1
0	14372	26.8	1
0	14393	26.85	1
0	14394	26.85	1
0	14411	26.9	1
0	14412	26.9	1
0	14414	26.9	1
0	14415	26.9	1
0	14436	26.95	1
0	14437	26.95	1
0	14501	27	1
0	14502	27	1
0	14504	27	1
0	14505	27	1
0	14526	27.05	1
0	14527	27.05	1
0	14546	27.1	1
0	14547	27.1	1
0	14549	27.1	1
0	14550	27.1	1
0	14574	27.15	1
0	14575	27.15	1
0	14592	27.2	1
0	14593	27.2	1
0	14595	27.2	1
0	14596	27.2	1
0	14617	27.25	1
0	14618	27.25	1
0	14635	27.3	1
0	14636	27.3	1
0	14638	27.3	1
0	14639	27.3	1
0	14660	27.35	1
0	14661	27.35	1
0	14678	27.4	1
0	14679	27.4	1
0	14681	27.4	1
0	14682	27.4	1
0	14703	27.45	1
0	14704	27.45	1
0	14721	27.5	1
0	14722	27.5	1
0	14724	27.5	1
0	14725	27.5	1
0	14813	27.55	1
0	14814	27.55	1
0	14831	27.6	1
0	14832	27.6	1
0	14834	27.6	1
0	14835	27.6	1
0	14856	27.65	1
0	14857	27.65	1
0	14874	27.7	1
0	14875	27.7	1
0	14877	27.7	1
0	14878	27.7	1
0	14899	27.75	1
0	14900	27.75	1
0	14917	27.8	1
0	14918	27.8	1
0	14920	27.8	1
0	14921	27.8	1
0	14942	27.85	1
0	14943	27.85	1
0	14960	27.9	1
0	14961	27.9	1
0	14963	27.9	1
0	14964	27.9	1
0	14985	27.95	1
0	14986	27.95	1
0	15004	28	1
0	15005	28	1
0	15007	28	1
0	15008	28	1
0	15029	28.05	1
0	15030	28.05	1
0	15095	28.1	1
0	15096	28.1	1
0	15098	28.1	1
0	15099	28.1	1
0	15123	28.15	1
0	15124	28.15	1
0	15141	28.2	1
0	15142	28.2	1
0	15144	28.2	1
0	15145	28.2	1
0	15166	28.25	1
0	15167	28.25	1
0	15184	28.3	1
0	15185	28.3	1
0	15187	28.3	1
0	15188	28.3	1
0	15209	28.35	1
0	15210	28.35	1
0	15227	28.4	1
0	15228	28.4	1
0	15230	28.4	1
0	15231	28.4	1
0	15252	28.45	1
0	15253	28.45	1
0	15270	28.5	1
0	15271	28.5	1
0	15273	28.5	1
0	15274	28.5	1
0	15295	28.55	1
0	15296	28.55	1
0	15313	28.6	1
0	15314	28.6	1
0	15316	28.6	1
0	15317	28.6	1
0	15405	28.65	1
0	15406	28.65	1
0	15423	28.7	1
0	15424	28.7	1
0	15426	28.7	1
0	15427	28.7	1
0	15448	28.75	1
0	15449	28.75	1
0	15466	28.8	1
0	15467	28.8	1
0	15469	28.8	1
0	15470	28.8	1
0	15491	28.85	1
0	15492	28.85	1
0	15509	28.9	1
0	15510	28.9	1
0	15512	28.9	1
0	15513	28.9	1
0	15534	28.95	1
0	15535	28.95	1
0	15553	29	1
0	15554	29	1
0	15556	29	1
0	15557	29	1
0	15578	29.05	1
0	15579	29.05	1
0	15598	29.1	1
0	15599	29.1	1
0	15601	29.1	1
0	15602	29.1	1
0	15626	29.15	1
0	15627	29.15	1
0	15711	29.2	1
0	15712	29.2	1
0	15714	29.2	1
0	15715	29.2	1
0	15736	29.25	1
0	15737	29.25	1
0	15754	29.3	1
0	15755	29.3	1
0	15757	29.3	1
0	15758	29.3	1
0	15779	29.35	1
0	15780	29.35	1
0	15797	29.4	1
0	15798	29.4	1
0	15800	29.4	1
0	15801	29.4	1
0	15822	29.45	1
0	15823	29.45	1
0	15840	29.5	1
0	15841	29.5	1
0	15843	29.5	1
0	15844	29.5	1
0	15865	29.55	1
0	15866	29.55	1
0	15883	29.6	1
0	15884	29.6	1
0	15886	29.6	1
0	15887	29.6	1
0	15908	29.65	1
0	15909	29.65	1
0	15926	29.7	1
0	15927	29.7	1
0	15929	29.7	1
0	15930	29.7	1
0	15997	29.75	1
0	15998	29.75	1
0	16015	29.8	1
0	16016	29.8	1
0	16018	29.8	1
0	16019	29.8	1
0	16040	29.85	1
0	16041	29.85	1
0	16058	29.9	1
0	16059	29.9	1
0	16061	29.9	1
0	16062	29.9	1
0	16083	29.95	1
0	16084	29.95	1
0	16102	30	1
0	16103	30	1
0	16105	30	1
0	16106	30	1
0	16127	30.05	1
0	16128	30.05	1
0	16147	30.1	1
0	16148	30.1	1
0	16150	30.1	1
0	16151	30.1	1
0	16175	30.15	1
0	16176	30.15	1
0	16193	30.2	1
0	16194	30.2	1
0	16196	30.2	1
0	16197	30.2	1
0	16218	30.25	1
0	16219	30.25	1
0	16303	30.3	1
0	16304	30.3	1
0	16306	30.3	1
0	16307	30.3	1
0	16328	30.35	1
0	16329	30.35	1
0	16346	30.4	1
0	16347	30.4	1
0	16349	30.4	1
0	16350	30.4	1
0	16371	30.45	1
0	16372	30.45	1
0	16389	30.5	1
0	16390	30.5	1
0	16392	30.5	1
0	16393	30.5	1
0	16414	30.55	1
0	16415	30.55	1
0	16432	30.6	1
0	16433	30.6	1
0	16435	30.6	1
0	16436	30.6	1
0	16457	30.65	1
0	16458	30.65	1
0	16475	30.7	1
0	16476	30.7	1
0	16478	30.7	1
0	16479	30.7	1
0	16500	30.75	1
0	16501	30.75	1
0	16518	30.8	1
0	16519	30.8	1
0	16521	30.8	1
0	16522	30.8	1
0	16589	30.85	1
0	16590	30.85	1
0	16607	30.9	1
0	16608	30.9	1
0	16610	30.9	1
0	16611	30.9	1
0	16632	30.95	1
0	16633	30.95	1
0	16651	31	1
0	16652	31	1
0	16654	31	1
0	16655	31	1
0	16676	31.05	1
0	16677	31.05	1
0	16696	31.1	1
0	16697	31.1	1
0	16699	31.1	1
0	16700	31.1	1
0	16724	31.15	1
0	16725	31.15	1
0	16742	31.2	1
0	16743	31.2	1
0	16745	31.2	1
0	16746	31.2	1
0	16767	31.25	1
0	16768	31.25	1
0	16785	31.3	1
0	16786	31.3	1
0	16788	31.3	1
0	16789	31.3	1
0	16810	31.35	1
0	16811	31.35	1
0	16895	31.4	1
0	16896	31.4	1
0	16898	31.4	1
0	16899	31.4	1
0	16920	31.45	1
0	16921	31.45	1
0	16938	31.5	1
0	16939	31.5	1
0	16941	31.5	1
0	16942	31.5	1
0	16963	31.55	1
0	16964	31.55	1
0	16981	31.6	1
0	16982	31.6	1
0	16984	31.6	1
0	16985	31.6	1
0	17006	31.65	1
0	17007	31.65	1
0	17024	31.7	1
0	17025	31.7	1
0	17027	31.7	1
0	17028	31.7	1
0	17049	31.75	1
0	17050	31.75	1
0	17067	31.8	1
0	17068	31.8	1
0	17070	31.8	1
0	17071	31.8	1
0	17092	31.85	1
0	17093	31.85	1
0	17110	31.9	1
0	17111	31.9	1
0	17113	31.9	1
0	17114	31.9	1
0	17181	31.95	1
0	17182	31.95	1
0	17200	32	1
0	17201	32	1
0	17203	32	1
0	17204	32	1
0	17225	32.05	1
0	17226	32.05	1
0	17245	32.1	1
0	17246	32.1	1
0	17248	32.1	1
0	17249	32.1	1
0	17273	32.15	1
0	17274	32.15	1
0	17291	32.2	1
0	17292	32.2	1
0	17294	32.2	1
0	17295	32.2	1
0	17316	32.25	1
0	17317	32.25	1
0	17334	32.3	1
0	17335	32.3	1
0	17337	32.3	1
0	17338	32.3	1
0	17359	32.35	1
0	17360	32.35	1
0	17377	32.4	1
0	17378	32.4	1
0	17380	32.4	1
0	17381	32.4	1
0	17402	32.45	1
0	17403	32.45	1
0	17487	32.5	1
0	17488	32.5	1
0	17490	32.5	1
0	17491	32.5	1
0	17512	32.55	1
0	17513	32.55	1
0	17530	32.6	1
0	17531	32.6	1
0	17533	32.6	1
0	17534	32.6	1
0	17555	32.65	1
0	17556	32.65	1
0	17573	32.7	1
0	17574	32.7	1
0	17576	32.7	1
0	17577	32.7	1
0	17598	32.75	1
0	17599	32.75	1
0	17616	32.8	1
0	17617	32.8	1
0	17619	32.8	1
0	17620	32.8	1
0	17641	32.85	1
0	17642	32.85	1
0	17659	32.9	1
0	17660	32.9	1
0	17662	32.9	1
0	17663	32.9	1
0	17684	32.95	1
0	17685	32.95	1
0	17703	33	1
0	17704	33	1
0	17706	33	1
0	17707	33	1
0	17774	33.05	1
0	17775	33.05	1
0	17794	33.1	1
0	17795	33.1	1
0	17797	33.1	1
0	17798	33.1	1
0	17822	33.15	1
0	17823	33.15	1
0	17840	33.2	1
0	17841	33.2	1
0	17843	33.2	1
0	17844	33.2	1
0	17865	33.25	1
0	17866	33.25	1
0	17883	33.3	1
0	17884	33.3	1
0	17886	33.3	1
0	17887	33.3	1
0	17908	33.35	1
0	17909	33.35	1
0	17926	33.4	1
0	17927	33.4	1
0	17929	33.4	1
0	17930	33.4	1
0	17951	33.45	1
0	17952	33.45	1
0	17969	33.5	1
0	17970	33.5	1
0	17972	33.5	1
0	17973	33.5	1
0	17994	33.55	1
0	17995	33.55	1
0	18079	33.6	1
0	18080	33.6	1
0	18082	33.6	1
0	18083	33.6	1
0	18104	33.65	1
0	18105	33.65	1
0	18122	33.7	1
0	18123	33.7	1
0	18125	33.7	1
0	18126	33.7	1
0	18147	33.75	1
0	18148	33.75	1
0	18165	33.8	1
0	18166	33.8	1
0	18168	33.8	1
0	18169	33.8	1
0	18190	33.85	1
0	18191	33.85	1
0	18208	33.9	1
0	18209	33.9	1
0	18211	33.9	1
0	18212	33.9	1
0	18233	33.95	1
0	18234	33.95	1
0	18252	34	1
0	18253	34	1
0	18255	34	1
0	18256	34	1
0	18277	34.05	1
0	18278	34.05	1
0	18297	34.1	1
0	18298	34.1	1
0	18300	34.1	1
0	18301	34.1	1
0	18392	34.15	1
0	18393	34.15	1
0	18410	34.2	1
0	18411	34.2	1
0	18413	34.2	1
0	18414	34.2	1
0	18435	34.25	1
0	18436	34.25	1
0	18453	34.3	1
0	18454	34.3	1
0	18456	34.3	1
0	18457	34.3	1
0	18478	34.35	1
0	18479	34.35	1
0	18496	34.4	1
0	18497	34.4	1
0	18499	34.4	1
0	18500	34.4	1
0	18521	34.45	1
0	18522	34.45	1
0	18539	34.5	1
0	18540	34.5	1
0	18542	34.5	1
0	18543	34.5	1
0	18564	34.55	1
0	18565	34.55	1
0	18582	34.6	1
0	18583	34.6	1
0	18585	34.6	1
0	18586	34.6	1
0	18607	34.65	1
0	18608	34.65	1
0	18671	34.7	1
0	18672	34.7	1
0	18674	34.7	1
0	18675	34.7	1
0	18696	34.75	1
0	18697	34.75	1
0	18714	34.8	1
0	18715	34.8	1
0	18717	34.8	1
0	18718	34.8	1
0	18739	34.85	1
0	18740	34.85	1
0	18757	34.9	1
0	18758	34.9	1
0	18760	34.9	1
0	18761	34.9	1
0	18782	34.95	1
0	18783	34.95	1
0	18801	35	1
0	18802	35	1
0	18804	35	1
0	18805	35	1
0	18826	35.05	1
0	18827	35.05	1
0	18846	35.1	1
0	18847	35.1	1
0	18849	35.1	1
0	18850	35.1	1
0	18874	35.15	1
0	18875	35.15	1
0	18892	35.2	1
0	18893	35.2	1
0	18895	35.2	1
0	18896	35.2	1
0	18984	35.25	1
0	18985	35.25	1
0	19002	35.3	1
0	19003	35.3	1
0	19005	35.3	1
0	19006	35.3	1
0	19027	35.35	1
0	19028	35.35	1
0	19045	35.4	1
0	19046	35.4	1
0	19048	35.4	1
0	19049	35.4	1
0	19070	35.45	1
0	19071	35.45	1
0	19088	35.5	1
0	19089	35.5	1
0	19091	35.5	1
0	19092	35.5	1
0	19113	35.55	1
0	19114	35.55	1
0	19131	35.6	1
0	19132	35.6	1
0	19134	35.6	1
0	19135	35.6	1
0	19156	35.65	1
0	19157	35.65	1
0	19174	35.7	1
0	19175	35.7	1
0	19177	35.7	1
0	19178	35.7	1
0	19199	35.75	1
0	19200	35.75	1
0	19263	35.8	1
0	19264	35.8	1
0	19266	35.8	1
0	19267	35.8	1
0	19288	35.85	1
0	19289	35.85	1
0	19306	35.9	1
0	19307	35.9	1
0	19309	35.9	1
0	19310	35.9	1
0	19331	35.95	1
0	19332	35.95	1
0	19350	36	1
0	19351	36	1
0	19353	36	1
0	19354	36	1
0	19375	36.05	1
0	19376	36.05	1
0	19395	36.1	1
0	19396	36.1	1
0	19398	36.1	1
0	19399	36.1	1
0	19423	36.15	1
0	19424	36.15	1
0	19441	36.2	1
0	19442	36.2	1
0	19444	36.2	1
0	19445	36.2	1
0	19466	36.25	1
0	19467	36.25	1
0	19484	36.3	1
0	19485	36.3	1
0	19487	36.3	1
0	19488	36.3	1
0	19576	36.35	1
0	19577	36.35	1
0	19594	36.4	1
0	19595	36.4	1
0	19597	36.4	1
0	19598	36.4	1
0	19619	36.45	1
0	19620	36.45	1
0	19637	36.5	1
0	19638	36.5	1
0	19640	36.5	1
0	19641	36.5	1
0	19662	36.55	1
0	19663	36.55	1
0	19680	36.6	1
0	19681	36.6	1
0	19683	36.6	1
0	19684	36.6	1
0	19705	36.65	1
0	19706	36.65	1
0	19723	36.7	1
0	19724	36.7	1
0	19726	36.7	1
0	19727	36.7	1
0	19748	36.75	1
0	19749	36.75	1
0	19766	36.8	1
0	19767	36.8	1
0	19769	36.8	1
0	19770	36.8	1
0	19791	36.85	1
0	19792	36.85	1
0	19855	36.9	1
0	19856	36.9	1
0	19858	36.9	1
0	19859	36.9	1
0	19880	36.95	1
0	19881	36.95	1
0	19899	37	1
0	19900	37	1
0	19902	37	1
0	19903	37	1
0	19924	37.05	1
0	19925	37.05	1
0	19944	37.1	1
0	19945	37.1	1
0	19947	37.1	1
0	19948	37.1	1
0	19972	37.15	1
0	19973	37.15	1
0	19990	37.2	1
0	19991	37.2	1
0	19993	37.2	1
0	19994	37.2	1
0	20015	37.25	1
0	20016	37.25	1
0	20033	37.3	1
0	20034	37.3	1
0	20036	37.3	1
0	20037	37.3	1
0	20058	37.35	1
0	20059	37.35	1
0	20076	37.4	1
0	20077	37.4	1
0	20079	37.4	1
0	20080	37.4	1
0	20168	37.45	1
0	20169	37.45	1
0	20186	37.5	1
0	20187	37.5	1
0	20189	37.5	1
0	20190	37.5	1
0	20211	37.55	1
0	20212	37.55	1
0	20229	37.6	1
0	20230	37.6	1
0	20232	37.6	1
0	20233	37.6	1
0	20254	37.65	1
0	20255	37.65	1
0	20272	37.7	1
0	20273	37.7	1
0	20275	37.7	1
0	20276	37.7	1
0	20297	37.75	1
0	20298	37.75	1
0	20315	37.8	1
0	20316	37.8	1
0	20318	37.8	1
0	20319	37.8	1
0	20340	37.85	1
0	20341	37.85	1
0	20358	37.9	1
0	20359	37.9	1
0	20361	37.9	1
0	20362	37.9	1
0	20383	37.95	1
0	20384	37.95	1
0	20442	38	1
0	20443	38	1
0	20445	38	1
0	20446	38	1
0	20467	38.05	1
0	20468	38.05	1
0	20487	38.1	1
0	20488	38.1	1
0	20490	38.1	1
0	20491	38.1	1
0	20515	38.15	1
0	20516	38.15	1
0	20533	38.2	1
0	20534	38.2	1
0	20536	38.2	1
0	20537	38.2	1
0	20558	38.25	1
0	20559	38.25	1
0	20576	38.3	1
0	20577	38.3	1
0	20579	38.3	1
0	20580	38.3	1
0	20601	38.35	1
0	20602	38.35	1
0	20619	38.4	1
0	20620	38.4	1
0	20622	38.4	1
0	20623	38.4	1
0	20644	38.45	1
0	20645	38.45	1
0	20662	38.5	1
0	20663	38.5	1
0	20665	38.5	1
0	20666	38.5	1
0	20748	38.55	1
0	20749	38.55	1
0	20766	38.6	1
0	20767	38.6	1
0	20769	38.6	1
0	20770	38.6	1
0	20791	38.65	1
0	20792	38.65	1
0	20809	38.7	1
0	20810	38.7	1
0	20812	38.7	1
0	20813	38.7	1
0	20834	38.75	1
0	20835	38.75	1
0	20852	38.8	1
0	20853	38.8	1
0	20855	38.8	1
0	20856	38.8	1
0	20877	38.85	1
0	20878	38.85	1
0	20895	38.9	1
0	20896	38.9	1
0	20898	38.9	1
0	20899	38.9	1
0	20920	38.95	1
0	20921	38.95	1
0	20939	39	1
0	20940	39	1
0	20942	39	1
0	20943	39	1
0	20964	39.05	1
0	20965	39.05	1
0	21030	39.1	1
0	21031	39.1	1
0	21033	39.1	1
0	21034	39.1	1
0	21058	39.15	1
0	21059	39.15	1
0	21076	39.2	1
0	21077	39.2	1
0	21079	39.2	1
0	21080	39.2	1
0	21101	39.25	1
0	21102	39.25	1
0	21119	39.3	1
0	21120	39.3	1
0	21122	39.3	1
0	21123	39.3	1
0	21144	39.35	1
0	21145	39.35	1
0	21162	39.4	1
0	21163	39.4	1
0	21165	39.4	1
0	21166	39.4	1
0	21187	39.45	1
0	21188	39.45	1
0	21205	39.5	1
0	21206	39.5	1
0	21208	39.5	1
0	21209	39.5	1
0	21230	39.55	1
0	21231	39.55	1
0	21248	39.6	1
0	21249	39.6	1
0	21251	39.6	1
0	21252	39.6	1
0	21340	39.65	1
0	21341	39.65	1
0	21358	39.7	1
0	21359	39.7	1
0	21361	39.7	1
0	21362	39.7	1
0	21383	39.75	1
0	21384	39.75	1
0	21401	39.8	1
0	21402	39.8	1
0	21404	39.8	1
0	21405	39.8	1
0	21426	39.85	1
0	21427	39.85	1
0	21444	39.9	1
0	21445	39.9	1
0	21447	39.9	1
0	21448	39.9	1
0	21469	39.95	1
0	21470	39.95	1
0	21488	40	1
0	21489	40	1
0	21491	40	1
0	21492	40	1
0	21513	40.05	1
0	21514	40.05	1
0	21533	40.1	1
0	21534	40.1	1
0	21536	40.1	1
0	21537	40.1	1
0	21561	40.15	1
0	21562	40.15	1
0	21646	40.2	1
0	21647	40.2	1
0	21649	40.2	1
0	21650	40.2	1
0	21671	40.25	1
0	21672	40.25	1
0	21689	40.3	1
0	21690	40.3	1
0	21692	40.3	1
0	21693	40.3	1
0	21714	40.35	1
0	21715	40.35	1
0	21732	40.4	1
0	21733	40.4	1
0	21735	40.4	1
0	21736	40.4	1
0	21757	40.45	1
0	21758	40.45	1
0	21775	40.5	1
0	21776	40.5	1
0	21778	40.5	1
0	21779	40.5	1
0	21800	40.55	1
0	21801	40.55	1
0	21818	40.6	1
0	21819	40.6	1
0	21821	40.6	1
0	21822	40.6	1
0	21843	40.65	1
0	21844	40.65	1
0	21861	40.7	1
0	21862	40.7	1
0	21864	40.7	1
0	21865	40.7	1
0	21932	40.75	1
0	21933	40.75	1
0	21950	40.8	1
0	21951	40.8	1
0	21953	40.8	1
0	21954	40.8	1
0	21975	40.85	1
0	21976	40.85	1
0	21993	40.9	1
0	21994	40.9	1
0	21996	40.9	1
0	21997	40.9	1
0	22018	40.95	1
0	22019	40.95	1
0	22037	41	1
0	22038	41	1
0	22040	41	1
0	22041	41	1
0	22062	41.05	1
0	22063	41.05	1
0	22082	41.1	1
0	22083	41.1	1
0	22085	41.1	1
0	22086	41.1	1
0	22110	41.15	1
0	22111	41.15	1
0	22128	41.2	1
0	22129	41.2	1
0	22131	41.2	1
0	22132	41.2	1
0	22153	41.25	1
0	22154	41.25	1
0	22238	41.3	1
0	22239	41.3	1
0	22241	41.3	1
0	22242	41.3	1
0	22263	41.35	1
0	22264	41.35	1
0	22281	41.4	1
0	22282	41.4	1
0	22284	41.4	1
0	22285	41.4	1
0	22306	41.45	1
0	22307	41.45	1
0	22324	41.5	1
0	22325	41.5	1
0	22327	41.5	1
0	22328	41.5	1
0	22349	41.55	1
0	22350	41.55	1
0	22367	41.6	1
0	22368	41.6	1
0	22370	41.6	1
0	22371	41.6	1
0	22392	41.65	1
0	22393	41.65	1
0	22410	41.7	1
0	22411	41.7	1
0	22413	41.7	1
0	22414	41.7	1
0	22435	41.75	1
0	22436	41.75	1
0	22453	41.8	1
0	22454	41.8	1
0	22456	41.8	1
0	22457	41.8	1
0	22524	41.85	1
0	22525	41.85	1
0	22542	41.9	1
0	22543	41.9	1
0	22545	41.9	1
0	22546	41.9	1
0	22567	41.95	1
0	22568	41.95	1
0	22586	42	1
0	22587	42	1
0	22589	42	1
0	22590	42	1
0	22611	42.05	1
0	22612	42.05	1
0	22631	42.1	1
0	22632	42.1	1
0	22634	42.1	1
0	22635	42.1	1
0	22659	42.15	1
0	22660	42.15	1
0	22677	42.2	1
0	22678	42.2	1
0	22680	42.2	1
0	22681	42.2	1
0	22702	42.25	1
0	22703	42.25	1
0	22720	42.3	1
0	22721	42.3	1
0	22723	42.3	1
0	22724	42.3	1
0	22745	42.35	1
0	22746	42.35	1
0	22830	42.4	1
0	22831	42.4	1
0	22833	42.4	1
0	22834	42.4	1
0	22855	42.45	1
0	22856	42.45	1
0	22873	42.5	1
0	22874	42.5	1
0	22876	42.5	1
0	22877	42.5	1
0	22898	42.55	1
0	22899	42.55	1
0	22916	42.6	1
0	22917	42.6	1
0	22919	42.6	1
0	22920	42.6	1
0	22941	42.65	1
0	22942	42.65	1
0	22959	42.7	1
0	22960	42.7	1
0	22962	42.7	1
0	22963	42.7	1
0	22984	42.75	1
0	22985	42.75	1
0	23002	42.8	1
0	23003	42.8	1
0	23005	42.8	1
0	23006	42.8	1
0	23027	42.85	1
0	23028	42.85	1
0	23045	42.9	1
0	23046	42.9	1
0	23048	42.9	1
0	23049	42.9	1
0	23116	42.95	1
0	23117	42.95	1
0	23135	43	1
0	23136	43	1
0	23138	43	1
0	23139	43	1
0	23160	43.05	1
0	23161	43.05	1
0	23180	43.1	1
0	23181	43.1	1
0	23183	43.1	1
0	23184	43.1	1
0	23208	43.15	1
0	23209	43.15	1
0	23226	43.2	1
0	23227	43.2	1
0	23229	43.2	1
0	23230	43.2	1
0	23251	43.25	1
0	23252	43.25	1
0	23269	43.3	1
0	23270	43.3	1
0	23272	43.3	1
0	23273	43.3	1
0	23294	43.35	1
0	23295	43.35	1
0	23312	43.4	1
0	23313	43.4	1
0	23315	43.4	1
0	23316	43.4	1
0	23337	43.45	1
0	23338	43.45	1
0	23422	43.5	1
0	23423	43.5	1
0	23425	43.5	1
0	23426	43.5	1
0	23447	43.55	1
0	23448	43.55	1
0	23465	43.6	1
0	23466	43.6	1
0	23468	43.6	1
0	23469	43.6	1
0	23490	43.65	1
0	23491	43.65	1
0	23508	43.7	1
0	23509	43.7	1
0	23511	43.7	1
0	23512	43.7	1
0	23533	43.75	1
0	23534	43.75	1
0	23551	43.8	1
0	23552	43.8	1
0	23554	43.8	1
0	23555	43.8	1
0	23576	43.85	1
0	23577	43.85	1
0	23594	43.9	1
0	23595	43.9	1
0	23597	43.9	1
0	23598	43.9	1
0	23619	43.95	1
0	23620	43.95	1
0	23638	44	1
0	23639	44	1
0	23641	44	1
0	23642	44	1
0	23709	44.05	1
0	23710	44.05	1
0	23729	44.1	1
0	23730	44.1	1
0	23732	44.1	1
0	23733	44.1	1
0	23757	44.15	1
0	23758	44.15	1
0	23775	44.2	1
0	23776	44.2	1
0	23778	44.2	1
0	23779	44.2	1
0	23800	44.25	1
0	23801	44.25	1
0	23818	44.3	1
0	23819	44.3	1
0	23821	44.3	1
0	23822	44.3	1
0	23843	44.35	1
0	23844	44.35	1
0	23861	44.4	1
0	23862	44.4	1
0	23864	44.4	1
0	23865	44.4	1
0	23886	44.45	1
0	23887	44.45	1
0	23904	44.5	1
0	23905	44.5	1
0	23907	44.5	1
0	23908	44.5	1
0	23929	44.55	1
0	23930	44.55	1
0	24014	44.6	1
0	24015	44.6	1
0	24017	44.6	1
0	24018	44.6	1
0	24039	44.65	1
0	24040	44.65	1
0	24057	44.7	1
0	24058	44.7	1
0	24060	44.7	1
0	24061	44.7	1
0	24082	44.75	1
0	24083	44.75	1
0	24100	44.8	1
0	24101	44.8	1
0	24103	44.8	1
0	24104	44.8	1
0	24125	44.85	1
0	24126	44.85	1
0	24143	44.9	1
0	24144	44.9	1
0	24146	44.9	1
0	24147	44.9	1
0	24168	44.95	1
0	24169	44.95	1
0	24187	45	1
0	24188	45	1
0	24190	45	1
0	24191	45	1
0	24212	45.05	1
0	24213	45.05	1
0	24232	45.1	1
0	24233	45.1	1
0	24235	45.1	1
0	24236	45.1	1
0	24327	45.15	1
0	24328	45.15	1
0	24345	45.2	1
0	24346	45.2	1
0	24348	45.2	1
0	24349	45.2	1
0	24370	45.25	1
0	24371	45.25	1
0	24388	45.3	1
0	24389	45.3	1
0	24391	45.3	1
0	24392	45.3	1
0	24413	45.35	1
0	24414	45.35	1
0	24431	45.4	1
0	24432	45.4	1
0	24434	45.4	1
0	24435	45.4	1
0	24456	45.45	1
0	24457	45.45	1
0	24474	45.5	1
0	24475	45.5	1
0	24477	45.5	1
0	24478	45.5	1
0	24499	45.55	1
0	24500	45.55	1
0	24517	45.6	1
0	24518	45.6	1
0	24520	45.6	1
0	24521	45.6	1
0	24542	45.65	1
0	24543	45.65	1
0	24606	45.7	1
0	24607	45.7	1
0	24609	45.7	1
0	24610	45.7	1
0	24631	45.75	1
0	24632	45.75	1
0	24649	45.8	1
0	24650	45.8	1
0	24652	45.8	1
0	24653	45.8	1
0	24674	45.85	1
0	24675	45.85	1
0	24692	45.9	1
0	24693	45.9	1
0	24695	45.9	1
0	24696	45.9	1
0	24717	45.95	1
0	24718	45.95	1
0	24736	46	1
0	24737	46	1
0	24739	46	1
0	24740	46	1
0	24761	46.05	1
0	24762	46.05	1
0	24781	46.1	1
0	24782	46.1	1
0	24784	46.1	1
0	24785	46.1	1
0	24809	46.15	1
0	24810	46.15	1
0	24827	46.2	1
0	24828	46.2	1
0	24830	46.2	1
0	24831	46.2	1
0	24914	46.25	1
0	24915	46.25	1
0	24932	46.3	1
0	24933	46.3	1
0	24935	46.3	1
0	24936	46.3	1
0	24957	46.35	1
0	24958	46.35	1
0	24975	46.4	1
0	24976	46.4	1
0	24978	46.4	1
0	24979	46.4	1
0	25000	46.45	1
0	25001	46.45	1
0	25018	46.5	1
0	25019	46.5	1
0	25021	46.5	1
0	25022	46.5	1
0	25043	46.55	1
0	25044	46.55	1
0	25061	46.6	1
0	25062	46.6	1
0	25064	46.6	1
0	25065	46.6	1
0	25086	46.65	1
0	25087	46.65	1
0	25104	46.7	1
0	25105	46.7	1
0	25107	46.7	1
0	25108	46.7	1
0	25129	46.75	1
0	25130	46.75	1
0	25214	46.8	1
0	25215	46.8	1
0	25217	46.8	1
0	25218	46.8	1
0	25239	46.85	1
0	25240	46.85	1
0	25257	46.9	1
0	25258	46.9	1
0	25260	46.9	1
0	25261	46.9	1
0	25282	46.95	1
0	25283	46.95	1
0	25301	47	1
0	25302	47	1
0	25304	47	1
0	25305	47	1
0	25326	47.05	1
0	25327	47.05	1
0	25346	47.1	1
0	25347	47.1	1
0	25349	47.1	1
0	25350	47.1	1
0	25374	47.15	1
0	25375	47.15	1
0	25392	47.2	1
0	25393	47.2	1
0	25395	47.2	1
0	25396	47.2	1
0	25417	47.25	1
0	25418	47.25	1
0	25435	47.3	1
0	25436	47.3	1
0	25438	47.3	1
0	25439	47.3	1
0	25527	47.35	1
0	25528	47.35	1
0	25545	47.4	1
0	25546	47.4	1
0	25548	47.4	1
0	25549	47.4	1
0	25570	47.45	1
0	25571	47.45	1
0	25588	47.5	1
0	25589	47.5	1
0	25591	47.5	1
0	25592	47.5	1
0	25613	47.55	1
0	25614	47.55	1
0	25631	47.6	1
0	25632	47.6	1
0	25634	47.6	1
0	25635	47.6	1
0	25656	47.65	1
0	25657	47.65	1
0	25674	47.7	1
0	25675	47.7	1
0	25677	47.7	1
0	25678	47.7	1
0	25699	47.75	1
0	25700	47.75	1
0	25717	47.8	1
0	25718	47.8	1
0	25720	47.8	1
0	25721	47.8	1
0	25742	47.85	1
0	25743	47.85	1
0	25806	47.9	1
0	25807	47.9	1
0	25809	47.9	1
0	25810	47.9	1
0	25831	47.95	1
0	25832	47.95	1
0	25850	48	1
0	25851	48	1
0	25853	48	1
0	25854	48	1
0	25875	48.05	1
0	25876	48.05	1
0	25895	48.1	1
0	25896	48.1	1
0	25898	48.1	1
0	25899	48.1	1
0	25923	48.15	1
0	25924	48.15	1
0	25941	48.2	1
0	25942	48.2	1
0	25944	48.2	1
0	25945	48.2	1
0	25966	48.25	1
0	25967	48.25	1
0	25984	48.3	1
0	25985	48.3	1
0	25987	48.3	1
0	25988	48.3	1
0	26009	48.35	1
0	26010	48.35	1
0	26027	48.4	1
0	26028	48.4	1
0	26030	48.4	1
0	26031	48.4	1
0	26119	48.45	1
0	26120	48.45	1
0	26137	48.5	1
0	26138	48.5	1
0	26140	48.5	1
0	26141	48.5	1
0	26162	48.55	1
0	26163	48.55	1
0	26180	48.6	1
0	26181	48.6	1
0	26183	48.6	1
0	26184	48.6	1
0	26205	48.65	1
0	26206	48.65	1
0	26223	48.7	1
0	26224	48.7	1
0	26226	48.7	1
0	26227	48.7	1
0	26248	48.75	1
0	26249	48.75	1
0	26266	48.8	1
0	26267	48.8	1
0	26269	48.8	1
0	26270	48.8	1
0	26291	48.85	1
0	26292	48.85	1
0	26309	48.9	1
0	26310	48.9	1
0	26312	48.9	1
0	26313	48.9	1
0	26334	48.95	1
0	26335	48.95	1
0	26399	49	1
0	26400	49	1
0	26402	49	1
0	26403	49	1
0	26424	49.05	1
0	26425	49.05	1
0	26444	49.1	1
0	26445	49.1	1
0	26447	49.1	1
0	26448	49.1	1
0	26472	49.15	1
0	26473	49.15	1
0	26490	49.2	1
0	26491	49.2	1
0	26493	49.2	1
0	26494	49.2	1
0	26515	49.25	1
0	26516	49.25	1
0	26533	49.3	1
0	26534	49.3	1
0	26536	49.3	1
0	26537	49.3	1
0	26558	49.35	1
0	26559	49.35	1
0	26576	49.4	1
0	26577	49.4	1
0	26579	49.4	1
0	26580	49.4	1
0	26601	49.45	1
0	26602	49.45	1
0	26619	49.5	1
0	26620	49.5	1
0	26622	49.5	1
0	26623	49.5	1
0	26711	49.55	1
0	26712	49.55	1
0	26729	49.6	1
0	26730	49.6	1
0	26732	49.6	1
0	26733	49.6	1
0	26754	49.65	1
0	26755	49.65	1
0	26772	49.7	1
0	26773	49.7	1
0	26775	49.7	1
0	26776	49.7	1
0	26797	49.75	1
0	26798	49.75	1
0	26815	49.8	1
0	26816	49.8	1
0	26818	49.8	1
0	26819	49.8	1
0	26840	49.85	1
0	26841	49.85	1
0	26858	49.9	1
0	26859	49.9	1
0	26861	49.9	1
0	26862	49.9	1
0	26883	49.95	1
0	26884	49.95	1
0	26902	50	1
0	26903	50	1
0	26905	50	1
0	26906	50	1
0	26927	50.05	1
0	26928	50.05	1
0	26993	50.1	1
0	26994	50.1	1
0	26995	50.1	1
0	26996	50.1	1
0	27020	50.15	1
0	27021	50.15	1
0	27038	50.2	1
0	27039	50.2	1
0	27040	50.2	1
0	27041	50.2	1
0	27062	50.25	1
0	27063	50.25	1
0	27080	50.3	1
0	27081	50.3	1
0	27082	50.3	1
0	27083	50.3	1
0	27104	50.35	1
0	27105	50.35	1
0	27122	50.4	1
0	27123	50.4	1
0	27124	50.4	1
0	27125	50.4	1
0	27146	50.45	1
0	27147	50.45	1
0	27164	50.5	1
0	27165	50.5	1
0	27166	50.5	1
0	27167	50.5	1
0	27188	50.55	1
0	27189	50.55	1
0	27206	50.6	1
0	27207	50.6	1
0	27208	50.6	1
0	27209	50.6	1
0	27297	50.65	1
0	27298	50.65	1
0	27315	50.7	1
0	27316	50.7	1
0	27317	50.7	1
0	27318	50.7	1
0	27339	50.75	1
0	27340	50.75	1
0	27357	50.8	1
0	27358	50.8	1
0	27359	50.8	1
0	27360	50.8	1
0	27381	50.85	1
0	27382	50.85	1
0	27399	50.9	1
0	27400	50.9	1
0	27401	50.9	1
0	27402	50.9	1
0	27423	50.95	1
0	27424	50.95	1
0	27442	51	1
0	27443	51	1
0	27444	51	1
0	27445	51	1
0	27466	51.05	1
0	27467	51.05	1
0	27486	51.1	1
0	27487	51.1	1
0	27488	51.1	1
0	27489	51.1	1
0	27513	51.15	1
0	27514	51.15	1
0	27598	51.2	1
0	27599	51.2	1
0	27600	51.2	1
0	27601	51.2	1
0	27622	51.25	1
0	27623	51.25	1
0	27640	51.3	1
0	27641	51.3	1
0	27642	51.3	1
0	27643	51.3	1
0	27664	51.35	1
0	27665	51.35	1
0	27682	51.4	1
0	27683	51.4	1
0	27684	51.4	1
0	27685	51.4	1
0	27706	51.45	1
0	27707	51.45	1
0	27724	51.5	1
0	27725	51.5	1
0	27726	51.5	1
0	27727	51.5	1
0	27748	51.55	1
0	27749	51.55	1
0	27766	51.6	1
0	27767	51.6	1
0	27768	51.6	1
0	27769	51.6	1
0	27790	51.65	1
0	27791	51.65	1
0	27808	51.7	1
0	27809	51.7	1
0	27810	51.7	1
0	27811	51.7	1
0	27872	51.75	1
0	27873	51.75	1
0	27890	51.8	1
0	27891	51.8	1
0	27892	51.8	1
0	27893	51.8	1
0	27914	51.85	1
0	27915	51.85	1
0	27932	51.9	1
0	27933	51.9	1
0	27934	51.9	1
0	27935	51.9	1
0	27956	51.95	1
0	27957	51.95	1
0	27975	52	1
0	27976	52	1
0	27977	52	1
0	27978	52	1
0	27999	52.05	1
0	28000	52.05	1
0	28019	52.1	1
0	28020	52.1	1
0	28021	52.1	1
0	28022	52.1	1
0	28046	52.15	1
0	28047	52.15	1
0	28064	52.2	1
0	28065	52.2	1
0	28066	52.2	1
0	28067	52.2	1
0	28088	52.25	1
0	28089	52.25	1
0	28134	52.3	1
0	28135	52.3	1
0	28136	52.3	1
0	28137	52.3	1
0	28158	52.35	1
0	28159	52.35	1
0	28176	52.4	1
0	28177	52.4	1
0	28178	52.4	1
0	28179	52.4	1
0	28200	52.45	1
0	28201	52.45	1
0	28218	52.5	1
0	28219	52.5	1
0	28220	52.5	1
0	28221	52.5	1
0	28242	52.55	1
0	28243	52.55	1
0	28260	52.6	1
0	28261	52.6	1
0	28262	52.6	1
0	28263	52.6	1
0	28284	52.65	1
0	28285	52.65	1
0	28302	52.7	1
0	28303	52.7	1
0	28304	52.7	1
0	28305	52.7	1
0	28326	52.75	1
0	28327	52.75	1
0	28344	52.8	1
0	28345	52.8	1
0	28346	52.8	1
0	28347	52.8	1
0	28412	52.85	1
0	28413	52.85	1
0	28430	52.9	1
0	28431	52.9	1
0	28432	52.9	1
0	28433	52.9	1
0	28454	52.95	1
0	28455	52.95	1
0	28496	53	1
0	28497	53	1
0	28498	53	1
0	28499	53	1
0	28520	53.05	1
0	28521	53.05	1
0	28540	53.1	1
0	28541	53.1	1
0	28542	53.1	1
0	28543	53.1	1
0	28567	53.15	1
0	28568	53.15	1
0	28585	53.2	1
0	28586	53.2	1
0	28587	53.2	1
0	28588	53.2	1
0	28609	53.25	1
0	28610	53.25	1
0	28627	53.3	1
0	28628	53.3	1
0	28629	53.3	1
0	28630	53.3	1
0	28651	53.35	1
0	28652	53.35	1
0	28708	53.4	1
0	28709	53.4	1
0	28710	53.4	1
0	28711	53.4	1
0	28732	53.45	1
0	28733	53.45	1
0	28750	53.5	1
0	28751	53.5	1
0	28752	53.5	1
0	28753	53.5	1
0	28797	53.55	1
0	28798	53.55	1
0	28815	53.6	1
0	28816	53.6	1
0	28817	53.6	1
0	28818	53.6	1
0	28839	53.65	1
0	28840	53.65	1
0	28857	53.7	1
0	28858	53.7	1
0	28859	53.7	1
0	28860	53.7	1
0	28881	53.75	1
0	28882	53.75	1
0	28899	53.8	1
0	28900	53.8	1
0	28901	53.8	1
0	28902	53.8	1
0	28923	53.85	1
0	28924	53.85	1
0	28941	53.9	1
0	28942	53.9	1
0	28943	53.9	1
0	28944	53.9	1
0	29009	53.95	1
0	29010	53.95	1
0	29028	54	1
0	29029	54	1
0	29030	54	1
0	29031	54	1
0	29052	54.05	1
0	29053	54.05	1
0	29095	54.1	1
0	29096	54.1	1
0	29097	54.1	1
0	29098	54.1	1
0	29122	54.15	1
0	29123	54.15	1
0	29140	54.2	1
0	29141	54.2	1
0	29142	54.2	1
0	29143	54.2	1
0	29164	54.25	1
0	29165	54.25	1
0	29182	54.3	1
0	29183	54.3	1
0	29184	54.3	1
0	29185	54.3	1
0	29206	54.35	1
0	29207	54.35	1
0	29224	54.4	1
0	29225	54.4	1
0	29226	54.4	1
0	29227	54.4	1
0	29248	54.45	1
0	29249	54.45	1
0	29271	54.5	1
0	29272	54.5	1
0	29273	54.5	1
0	29274	54.5	1
0	29295	54.55	1
0	29296	54.55	1
0	29313	54.6	1
0	29314	54.6	1
0	29315	54.6	1
0	29316	54.6	1
0	29337	54.65	1
0	29338	54.65	1
0	29355	54.7	1
0	29356	54.7	1
0	29357	54.7	1
0	29358	54.7	1
0	29379	54.75	1
0	29380	54.75	1
0	29397	54.8	1
0	29398	54.8	1
0	29399	54.8	1
0	29400	54.8	1
0	29421	54.85	1
0	29422	54.85	1
0	29439	54.9	1
0	29440	54.9	1
0	29441	54.9	1
0	29442	54.9	1
0	29463	54.95	1
0	29464	54.95	1
0	29482	55	1
0	29483	55	1
0	29484	55	1
0	29485	55	1
0	29506	55.05	1
0	29507	55.05	1
0	29526	55.1	1
0	29527	55.1	1
0	29528	55.1	1
0	29529	55.1	1
0	29553	55.15	1
0	29554	55.15	1
0	29571	55.2	1
0	29572	55.2	1
0	29573	55.2	1
0	29574	55.2	1
0	29595	55.25	1
0	29596	55.25	1
0	29613	55.3	1
0	29614	55.3	1
0	29615	55.3	1
0	29616	55.3	1
0	29637	55.35	1
0	29638	55.35	1
0	29655	55.4	1
0	29656	55.4	1
0	29657	55.4	1
0	29658	55.4	1
0	29679	55.45	1
0	29680	55.45	1
0	29697	55.5	1
0	29698	55.5	1
0	29699	55.5	1
0	29700	55.5	1
0	29721	55.55	1
0	29722	55.55	1
0	29739	55.6	1
0	29740	55.6	1
0	29741	55.6	1
0	29742	55.6	1
0	29763	55.65	1
0	29764	55.65	1
0	29804	55.7	1
0	29805	55.7	1
0	29806	55.7	1
0	29807	55.7	1
0	29828	55.75	1
0	29829	55.75	1
0	29846	55.8	1
0	29847	55.8	1
0	29848	55.8	1
0	29849	55.8	1
0	29927	55.85	1
0	29928	55.85	1
0	29953	55.9	1
0	29954	55.9	1
0	29955	55.9	1
0	29956	55.9	1
0	29977	55.95	1
0	29978	55.95	1
0	29996	56	1
0	29997	56	1
0	29998	56	1
0	29999	56	1
0	30020	56.05	1
0	30021	56.05	1
0	30040	56.1	1
0	30041	56.1	1
0	30042	56.1	1
0	30043	56.1	1
0	30067	56.15	1
0	30068	56.15	1
0	30085	56.2	1
0	30086	56.2	1
0	30087	56.2	1
0	30088	56.2	1
0	30132	56.25	1
0	30133	56.25	1
0	30150	56.3	1
0	30151	56.3	1
0	30152	56.3	1
0	30153	56.3	1
0	30174	56.35	1
0	30175	56.35	1
0	30236	56.4	1
0	30237	56.4	1
0	30238	56.4	1
0	30239	56.4	1
0	30260	56.45	1
0	30261	56.45	1
0	30278	56.5	1
0	30279	56.5	1
0	30280	56.5	1
0	30281	56.5	1
0	30302	56.55	1
0	30303	56.55	1
0	30320	56.6	1
0	30321	56.6	1
0	30322	56.6	1
0	30323	56.6	1
0	30344	56.65	1
0	30345	56.65	1
0	30362	56.7	1
0	30363	56.7	1
0	30364	56.7	1
0	30365	56.7	1
0	30386	56.75	1
0	30387	56.75	1
0	30409	56.8	1
0	30410	56.8	1
0	30411	56.8	1
0	30412	56.8	1
0	30433	56.85	1
0	30434	56.85	1
0	30451	56.9	1
0	30452	56.9	1
0	30453	56.9	1
0	30454	56.9	1
0	30475	56.95	1
0	30476	56.95	1
0	30494	57	1
0	30495	57	1
0	30496	57	1
0	30497	57	1
0	30518	57.05	1
0	30519	57.05	1
0	30538	57.1	1
0	30539	57.1	1
0	30540	57.1	1
0	30541	57.1	1
0	30565	57.15	1
0	30566	57.15	1
0	30583	57.2	1
0	30584	57.2	1
0	30585	57.2	1
0	30586	57.2	1
0	30607	57.25	1
0	30608	57.25	1
0	30625	57.3	1
0	30626	57.3	1
0	30627	57.3	1
0	30628	57.3	1
0	30649	57.35	1
0	30650	57.35	1
0	30667	57.4	1
0	30668	57.4	1
0	30669	57.4	1
0	30670	57.4	1
0	30691	57.45	1
0	30692	57.45	1
0	30709	57.5	1
0	30710	57.5	1
0	30711	57.5	1
0	30712	57.5	1
0	30733	57.55	1
0	30734	57.55	1
0	30751	57.6	1
0	30752	57.6	1
0	30753	57.6	1
0	30754	57.6	1
0	30775	57.65	1
0	30776	57.65	1
0	30793	57.7	1
0	30794	57.7	1
0	30795	57.7	1
0	30796	57.7	1
0	30817	57.75	1
0	30818	57.75	1
0	30835	57.8	1
0	30836	57.8	1
0	30837	57.8	1
0	30838	57.8	1
0	30859	57.85	1
0	30860	57.85	1
0	30877	57.9	1
0	30878	57.9	1
0	30879	57.9	1
0	30880	57.9	1
0	30901	57.95	1
0	30902	57.95	1
0	30964	58	1
0	30965	58	1
0	30966	58	1
0	30967	58	1
0	30988	58.05	1
0	30989	58.05	1
0	31008	58.1	1
0	31009	58.1	1
0	31010	58.1	1
0	31011	58.1	1
0	31058	58.15	1
0	31059	58.15	1
0	31076	58.2	1
0	31077	58.2	1
0	31078	58.2	1
0	31079	58.2	1
0	31100	58.25	1
0	31101	58.25	1
0	31118	58.3	1
0	31119	58.3	1
0	31120	58.3	1
0	31121	58.3	1
0	31142	58.35	1
0	31143	58.35	1
0	31160	58.4	1
0	31161	58.4	1
0	31162	58.4	1
0	31163	58.4	1
0	31184	58.45	1
0	31185	58.45	1
0	31202	58.5	1
0	31203	58.5	1
0	31204	58.5	1
0	31205	58.5	1
0	31231	58.55	1
0	31232	58.55	1
0	31249	58.6	1
0	31250	58.6	1
0	31251	58.6	1
0	31252	58.6	1
0	31273	58.65	1
0	31274	58.65	1
0	31291	58.7	1
0	31292	58.7	1
0	31293	58.7	1
0	31294	58.7	1
0	31315	58.75	1
0	31316	58.75	1
0	31333	58.8	1
0	31334	58.8	1
0	31335	58.8	1
0	31336	58.8	1
0	31357	58.85	1
0	31358	58.85	1
0	31375	58.9	1
0	31376	58.9	1
0	31377	58.9	1
0	31378	58.9	1
0	31399	58.95	1
0	31400	58.95	1
0	31418	59	1
0	31419	59	1
0	31420	59	1
0	31421	59	1
0	31442	59.05	1
0	31443	59.05	1
0	31462	59.1	1
0	31463	59.1	1
0	31464	59.1	1
0	31465	59.1	1
0	31489	59.15	1
0	31490	59.15	1
0	31507	59.2	1
0	31508	59.2	1
0	31509	59.2	1
0	31510	59.2	1
0	31531	59.25	1
0	31532	59.25	1
0	31549	59.3	1
0	31550	59.3	1
0	31551	59.3	1
0	31552	59.3	1
0	31573	59.35	1
0	31574	59.35	1
0	31591	59.4	1
0	31592	59.4	1
0	31593	59.4	1
0	31594	59.4	1
0	31615	59.45	1
0	31616	59.45	1
0	31633	59.5	1
0	31634	59.5	1
0	31635	59.5	1
0	31636	59.5	1
0	31657	59.55	1
0	31658	59.55	1
0	31675	59.6	1
0	31676	59.6	1
0	31677	59.6	1
0	31678	59.6	1
0	31699	59.65	1
0	31700	59.65	1
0	31717	59.7	1
0	31718	59.7	1
0	31719	59.7	1
0	31720	59.7	1
0	31764	59.75	1
0	31765	59.75	1
0	31782	59.8	1
0	31783	59.8	1
0	31784	59.8	1
0	31785	59.8	1
0	31806	59.85	1
0	31807	59.85	1
0	31881	59.9	1
0	31882	59.9	1
0	31883	59.9	1
0	31884	59.9	1
0	31913	59.95	1
0	31914	59.95	1
0	31932	60	1
0	31933	60	1
0	31934	60	1
0	31935	60	1
0	31956	60.05	1
0	31957	60.05	1
0	31976	60.1	1
0	31977	60.1	1
0	31978	60.1	1
0	31979	60.1	1
0	32003	60.15	1
0	32004	60.15	1
0	32021	60.2	1
0	32022	60.2	1
0	32023	60.2	1
0	32024	60.2	1
0	32045	60.25	1
0	32046	60.25	1
0	32086	60.3	1
0	32087	60.3	1
0	32088	60.3	1
0	32089	60.3	1
0	32110	60.35	1
0	32111	60.35	1
0	32128	60.4	1
0	32129	60.4	1
0	32130	60.4	1
0	32131	60.4	1
0	32196	60.45	1
0	32197	60.45	1
0	32214	60.5	1
0	32215	60.5	1
0	32216	60.5	1
0	32217	60.5	1
0	32238	60.55	1
0	32239	60.55	1
0	32256	60.6	1
0	32257	60.6	1
0	32258	60.6	1
0	32259	60.6	1
0	32280	60.65	1
0	32281	60.65	1
0	32298	60.7	1
0	32299	60.7	1
0	32300	60.7	1
0	32301	60.7	1
0	32322	60.75	1
0	32323	60.75	1
0	32340	60.8	1
0	32341	60.8	1
0	32342	60.8	1
0	32343	60.8	1
0	32387	60.85	1
0	32388	60.85	1
0	32405	60.9	1
0	32406	60.9	1
0	32407	60.9	1
0	32408	60.9	1
0	32429	60.95	1
0	32430	60.95	1
0	32471	61	1
0	32472	61	1
0	32473	61	1
0	32474	61	1
0	32495	61.05	1
0	32496	61.05	1
0	32515	61.1	1
0	32516	61.1	1
0	32517	61.1	1
0	32518	61.1	1
0	32542	61.15	1
0	32543	61.15	1
0	32560	61.2	1
0	32561	61.2	1
0	32562	61.2	1
0	32563	61.2	1
0	32584	61.25	1
0	32585	61.25	1
0	32602	61.3	1
0	32603	61.3	1
0	32604	61.3	1
0	32605	61.3	1
0	32626	61.35	1
0	32627	61.35	1
0	32667	61.4	1
0	32668	61.4	1
0	32669	61.4	1
0	32670	61.4	1
0	32691	61.45	1
0	32692	61.45	1
0	32709	61.5	1
0	32710	61.5	1
0	32711	61.5	1
0	32712	61.5	1
0	32777	61.55	1
0	32778	61.55	1
0	32795	61.6	1
0	32796	61.6	1
0	32797	61.6	1
0	32798	61.6	1
0	32819	61.65	1
0	32820	61.65	1
0	32837	61.7	1
0	32838	61.7	1
0	32839	61.7	1
0	32840	61.7	1
0	32861	61.75	1
0	32862	61.75	1
0	32879	61.8	1
0	32880	61.8	1
0	32881	61.8	1
0	32882	61.8	1
0	32903	61.85	1
0	32904	61.85	1
0	32921	61.9	1
0	32922	61.9	1
0	32923	61.9	1
0	32924	61.9	1
0	32968	61.95	1
0	32969	61.95	1
0	32987	62	1
0	32988	62	1
0	32989	62	1
0	32990	62	1
0	33011	62.05	1
0	33012	62.05	1
0	33054	62.1	1
0	33055	62.1	1
0	33056	62.1	1
0	33057	62.1	1
0	33081	62.15	1
0	33082	62.15	1
0	33099	62.2	1
0	33100	62.2	1
0	33101	62.2	1
0	33102	62.2	1
0	33123	62.25	1
0	33124	62.25	1
0	33141	62.3	1
0	33142	62.3	1
0	33143	62.3	1
0	33144	62.3	1
0	33165	62.35	1
0	33166	62.35	1
0	33183	62.4	1
0	33184	62.4	1
0	33185	62.4	1
0	33186	62.4	1
0	33207	62.45	1
0	33208	62.45	1
0	33248	62.5	1
0	33249	62.5	1
0	33250	62.5	1
0	33251	62.5	1
0	33272	62.55	1
0	33273	62.55	1
0	33290	62.6	1
0	33291	62.6	1
0	33292	62.6	1
0	33293	62.6	1
0	33358	62.65	1
0	33359	62.65	1
0	33376	62.7	1
0	33377	62.7	1
0	33378	62.7	1
0	33379	62.7	1
0	33400	62.75	1
0	33401	62.75	1
0	33418	62.8	1
0	33419	62.8	1
0	33420	62.8	1
0	33421	62.8	1
0	33442	62.85	1
0	33443	62.85	1
0	33460	62.9	1
0	33461	62.9	1
0	33462	62.9	1
0	33463	62.9	1
0	33484	62.95	1
0	33485	62.95	1
0	33503	63	1
0	33504	63	1
0	33505	63	1
0	33506	63	1
0	33550	63.05	1
0	33551	63.05	1
0	33570	63.1	1
0	33571	63.1	1
0	33572	63.1	1
0	33573	63.1	1
0	33597	63.15	1
0	33598	63.15	1
0	33620	63.2	1
0	33621	63.2	1
0	33622	63.2	1
0	33623	63.2	1
0	33644	63.25	1
0	33645	63.25	1
0	33662	63.3	1
0	33663	63.3	1
0	33664	63.3	1
0	33665	63.3	1
0	33686	63.35	1
0	33687	63.35	1
0	33704	63.4	1
0	33705	63.4	1
0	33706	63.4	1
0	33707	63.4	1
0	33728	63.45	1
0	33729	63.45	1
0	33746	63.5	1
0	33747	63.5	1
0	33748	63.5	1
0	33749	63.5	1
0	33770	63.55	1
0	33771	63.55	1
0	33788	63.6	1
0	33789	63.6	1
0	33790	63.6	1
0	33791	63.6	1
0	33812	63.65	1
0	33813	63.65	1
0	33830	63.7	1
0	33831	63.7	1
0	33832	63.7	1
0	33833	63.7	1
0	33854	63.75	1
0	33855	63.75	1
0	33872	63.8	1
0	33873	63.8	1
0	33874	63.8	1
0	33875	63.8	1
0	33896	63.85	1
0	33897	63.85	1
0	33914	63.9	1
0	33915	63.9	1
0	33916	63.9	1
0	33917	63.9	1
0	33938	63.95	1
0	33939	63.95	1
0	33957	64	1
0	33958	64	1
0	33959	64	1
0	33960	64	1
0	33981	64.05	1
0	33982	64.05	1
0	34001	64.1	1
0	34002	64.1	1
0	34003	64.1	1
0	34004	64.1	1
0	34028	64.15	1
0	34029	64.15	1
0	34046	64.2	1
0	34047	64.2	1
0	34048	64.2	1
0	34049	64.2	1
0	34070	64.25	1
0	34071	64.25	1
0	34088	64.3	1
0	34089	64.3	1
0	34090	64.3	1
0	34091	64.3	1
0	34112	64.35	1
0	34113	64.35	1
0	34130	64.4	1
0	34131	64.4	1
0	34132	64.4	1
0	34133	64.4	1
0	34154	64.45	1
0	34155	64.45	1
0	34172	64.5	1
0	34173	64.5	1
0	34174	64.5	1
0	34175	64.5	1
0	34196	64.55	1
0	34197	64.55	1
0	34214	64.6	1
0	34215	64.6	1
0	34216	64.6	1
0	34217	64.6	1
0	34261	64.65	1
0	34262	64.65	1
0	34279	64.7	1
0	34280	64.7	1
0	34281	64.7	1
0	34282	64.7	1
0	34303	64.75	1
0	34304	64.75	1
0	34378	64.8	1
0	34379	64.8	1
0	34380	64.8	1
0	34381	64.8	1
0	34410	64.85	1
0	34411	64.85	1
0	34428	64.9	1
0	34429	64.9	1
0	34430	64.9	1
0	34431	64.9	1
0	34452	64.95	1
0	34453	64.95	1
0	34471	65	1
0	34472	65	1
0	34473	65	1
0	34474	65	1
0	34495	65.05	1
0	34496	65.05	1
0	34515	65.1	1
0	34516	65.1	1
0	34517	65.1	1
0	34518	65.1	1
0	34542	65.15	1
0	34543	65.15	1
0	34583	65.2	1
0	34584	65.2	1
0	34585	65.2	1
0	34586	65.2	1
0	34607	65.25	1
0	34608	65.25	1
0	34625	65.3	1
0	34626	65.3	1
0	34627	65.3	1
0	34628	65.3	1
0	34654	65.35	1
0	34655	65.35	1
0	34672	65.4	1
0	34673	65.4	1
0	34674	65.4	1
0	34675	65.4	1
0	34696	65.45	1
0	34697	65.45	1
0	34714	65.5	1
0	34715	65.5	1
0	34716	65.5	1
0	34717	65.5	1
0	34738	65.55	1
0	34739	65.55	1
0	34756	65.6	1
0	34757	65.6	1
0	34758	65.6	1
0	34759	65.6	1
0	34780	65.65	1
0	34781	65.65	1
0	34798	65.7	1
0	34799	65.7	1
0	34800	65.7	1
0	34801	65.7	1
0	34822	65.75	1
0	34823	65.75	1
0	34840	65.8	1
0	34841	65.8	1
0	34842	65.8	1
0	34843	65.8	1
0	34864	65.85	1
0	34865	65.85	1
0	34882	65.9	1
0	34883	65.9	1
0	34884	65.9	1
0	34885	65.9	1
0	34906	65.95	1
0	34907	65.95	1
0	34925	66	1
0	34926	66	1
0	34927	66	1
0	34928	66	1
0	34949	66.05	1
0	34950	66.05	1
0	34969	66.1	1
0	34970	66.1	1
0	34971	66.1	1
0	34972	66.1	1
0	34996	66.15	1
0	34997	66.15	1
0	35014	66.2	1
0	35015	66.2	1
0	35016	66.2	1
0	35017	66.2	1
0	35038	66.25	1
0	35039	66.25	1
0	35056	66.3	1
0	35057	66.3	1
0	35058	66.3	1
0	35059	66.3	1
0	35080	66.35	1
0	35081	66.35	1
0	35098	66.4	1
0	35099	66.4	1
0	35100	66.4	1
0	35101	66.4	1
0	35122	66.45	1
0	35123	66.45	1
0	35140	66.5	1
0	35141	66.5	1
0	35142	66.5	1
0	35143	66.5	1
0	35164	66.55	1
0	35165	66.55	1
0	35182	66.6	1
0	35183	66.6	1
0	35184	66.6	1
0	35185	66.6	1
0	35206	66.65	1
0	35207	66.65	1
0	35224	66.7	1
0	35225	66.7	1
0	35226	66.7	1
0	35227	66.7	1
0	35248	66.75	1
0	35249	66.75	1
0	35289	66.8	1
0	35290	66.8	1
0	35291	66.8	1
0	35292	66.8	1
0	35313	66.85	1
0	35314	66.85	1
0	35331	66.9	1
0	35332	66.9	1
0	35333	66.9	1
0	35334	66.9	1
0	35412	66.95	1
0	35413	66.95	1
0	35439	67	1
0	35440	67	1
0	35441	67	1
0	35442	67	1
0	35463	67.05	1
0	35464	67.05	1
0	35483	67.1	1
0	35484	67.1	1
0	35485	67.1	1
0	35486	67.1	1
0	35510	67.15	1
0	35511	67.15	1
0	35528	67.2	1
0	35529	67.2	1
0	35530	67.2	1
0	35531	67.2	1
0	35552	67.25	1
0	35553	67.25	1
0	35570	67.3	1
0	35571	67.3	1
0	35572	67.3	1
0	35573	67.3	1
0	35617	67.35	1
0	35618	67.35	1
0	35635	67.4	1
0	35636	67.4	1
0	35637	67.4	1
0	35638	67.4	1
0	35659	67.45	1
0	35660	67.45	1
0	35716	67.5	1
0	35717	67.5	1
0	35718	67.5	1
0	35719	67.5	1
0	35740	67.55	1
0	35741	67.55	1
0	35758	67.6	1
0	35759	67.6	1
0	35760	67.6	1
0	35761	67.6	1
0	35782	67.65	1
0	35783	67.65	1
0	35800	67.7	1
0	35801	67.7	1
0	35802	67.7	1
0	35803	67.7	1
0	35824	67.75	1
0	35825	67.75	1
0	35842	67.8	1
0	35843	67.8	1
0	35844	67.8	1
0	35845	67.8	1
0	35866	67.85	1
0	35867	67.85	1
0	35907	67.9	1
0	35908	67.9	1
0	35909	67.9	1
0	35910	67.9	1
0	35931	67.95	1
0	35932	67.95	1
0	35950	68	1
0	35951	68	1
0	35952	68	1
0	35953	68	1
0	36013	68.05	1
0	36014	68.05	1
0	36033	68.1	1
0	36034	68.1	1
0	36035	68.1	1
0	36036	68.1	1
0	36060	68.15	1
0	36061	68.15	1
0	36078	68.2	1
0	36079	68.2	1
0	36080	68.2	1
0	36081	68.2	1
0	36102	68.25	1
0	36103	68.25	1
0	36120	68.3	1
0	36121	68.3	1
0	36122	68.3	1
0	36123	68.3	1
0	36144	68.35	1
0	36145	68.35	1
0	36162	68.4	1
0	36163	68.4	1
0	36164	68.4	1
0	36165	68.4	1
0	36209	68.45	1
0	36210	68.45	1
0	36227	68.5	1
0	36228	68.5	1
0	36229	68.5	1
0	36230	68.5	1
0	36251	68.55	1
0	36252	68.55	1
0	36326	68.6	1
0	36327	68.6	1
0	36328	68.6	1
0	36329	68.6	1
0	36358	68.65	1
0	36359	68.65	1
0	36376	68.7	1
0	36377	68.7	1
0	36378	68.7	1
0	36379	68.7	1
0	36400	68.75	1
0	36401	68.75	1
0	36418	68.8	1
0	36419	68.8	1
0	36420	68.8	1
0	36421	68.8	1
0	36442	68.85	1
0	36443	68.85	1
0	36460	68.9	1
0	36461	68.9	1
0	36462	68.9	1
0	36463	68.9	1
0	36484	68.95	1
0	36485	68.95	1
0	36526	69	1
0	36527	69	1
0	36528	69	1
0	36529	69	1
0	36550	69.05	1
0	36551	69.05	1
0	36570	69.1	1
0	36571	69.1	1
0	36572	69.1	1
0	36573	69.1	1
0	36625	69.15	1
0	36626	69.15	1
0	36643	69.2	1
0	36644	69.2	1
0	36645	69.2	1
0	36646	69.2	1
0	36667	69.25	1
0	36668	69.25	1
0	36685	69.3	1
0	36686	69.3	1
0	36687	69.3	1
0	36688	69.3	1
0	36709	69.35	1
0	36710	69.35	1
0	36727	69.4	1
0	36728	69.4	1
0	36729	69.4	1
0	36730	69.4	1
0	36751	69.45	1
0	36752	69.45	1
0	36769	69.5	1
0	36770	69.5	1
0	36771	69.5	1
0	36772	69.5	1
0	36810	69.55	1
0	36811	69.55	1
0	36828	69.6	1
0	36829	69.6	1
0	36830	69.6	1
0	36831	69.6	1
0	36852	69.65	1
0	36853	69.65	1
0	36914	69.7	1
0	36915	69.7	1
0	36916	69.7	1
0	36917	69.7	1
0	36938	69.75	1
0	36939	69.75	1
0	36956	69.8	1
0	36957	69.8	1
0	36958	69.8	1
0	36959	69.8	1
0	36980	69.85	1
0	36981	69.85	1
0	36998	69.9	1
0	36999	69.9	1
0	37000	69.9	1
0	37001	69.9	1
0	37022	69.95	1
0	37023	69.95	1
0	37041	70	1
0	37042	70	1
0	37043	70	1
0	37044	70	1
0	37065	70.05	1
0	37066	70.05	1
0	37108	70.1	1
0	37109	70.1	1
0	37110	70.1	1
0	37111	70.1	1
0	37135	70.15	1
0	37136	70.15	1
0	37153	70.2	1
0	37154	70.2	1
0	37155	70.2	1
0	37156	70.2	1
0	37221	70.25	1
0	37222	70.25	1
0	37239	70.3	1
0	37240	70.3	1
0	37241	70.3	1
0	37242	70.3	1
0	37263	70.35	1
0	37264	70.35	1
0	37281	70.4	1
0	37282	70.4	1
0	37283	70.4	1
0	37284	70.4	1
0	37305	70.45	1
0	37306	70.45	1
0	37323	70.5	1
0	37324	70.5	1
0	37325	70.5	1
0	37326	70.5	1
0	37347	70.55	1
0	37348	70.55	1
0	37365	70.6	1
0	37366	70.6	1
0	37367	70.6	1
0	37368	70.6	1
0	37412	70.65	1
0	37413	70.65	1
0	37430	70.7	1
0	37431	70.7	1
0	37432	70.7	1
0	37433	70.7	1
0	37454	70.75	1
0	37455	70.75	1
0	37495	70.8	1
0	37496	70.8	1
0	37497	70.8	1
0	37498	70.8	1
0	37519	70.85	1
0	37520	70.85	1
0	37537	70.9	1
0	37538	70.9	1
0	37539	70.9	1
0	37540	70.9	1
0	37561	70.95	1
0	37562	70.95	1
0	37580	71	1
0	37581	71	1
0	37582	71	1
0	37583	71	1
0	37604	71.05	1
0	37605	71.05	1
0	37624	71.1	1
0	37625	71.1	1
0	37626	71.1	1
0	37627	71.1	1
0	37651	71.15	1
0	37652	71.15	1
0	37692	71.2	1
0	37693	71.2	1
0	37694	71.2	1
0	37695	71.2	1
0	37716	71.25	1
0	37717	71.25	1
0	37734	71.3	1
0	37735	71.3	1
0	37736	71.3	1
0	37737	71.3	1
0	37802	71.35	1
0	37803	71.35	1
0	37820	71.4	1
0	37821	71.4	1
0	37822	71.4	1
0	37823	71.4	1
0	37844	71.45	1
0	37845	71.45	1
0	37862	71.5	1
0	37863	71.5	1
0	37864	71.5	1
0	37865	71.5	1
0	37886	71.55	1
0	37887	71.55	1
0	37904	71.6	1
0	37905	71.6	1
0	37906	71.6	1
0	37907	71.6	1
0	37928	71.65	1
0	37929	71.65	1
0	37946	71.7	1
0	37947	71.7	1
0	37948	71.7	1
0	37949	71.7	1
0	37993	71.75	1
0	37994	71.75	1
0	38011	71.8	1
0	38012	71.8	1
0	38013	71.8	1
0	38014	71.8	1
0	38035	71.85	1
0	38036	71.85	1
0	38076	71.9	1
0	38077	71.9	1
0	38078	71.9	1
0	38079	71.9	1
0	38100	71.95	1
0	38101	71.95	1
0	38119	72	1
0	38120	72	1
0	38121	72	1
0	38122	72	1
0	38143	72.05	1
0	38144	72.05	1
0	38163	72.1	1
0	38164	72.1	1
0	38165	72.1	1
0	38166	72.1	1
0	38190	72.15	1
0	38191	72.15	1
0	38208	72.2	1
0	38209	72.2	1
0	38210	72.2	1
0	38211	72.2	1
0	38232	72.25	1
0	38233	72.25	1
0	38273	72.3	1
0	38274	72.3	1
0	38275	72.3	1
0	38276	72.3	1
0	38297	72.35	1
0	38298	72.35	1
0	38315	72.4	1
0	38316	72.4	1
0	38317	72.4	1
0	38318	72.4	1
0	38383	72.45	1
0	38384	72.45	1
0	38401	72.5	1
0	38402	72.5	1
0	38403	72.5	1
0	38404	72.5	1
0	38425	72.55	1
0	38426	72.55	1
0	38443	72.6	1
0	38444	72.6	1
0	38445	72.6	1
0	38446	72.6	1
0	38467	72.65	1
0	38468	72.65	1
0	38485	72.7	1
0	38486	72.7	1
0	38487	72.7	1
0	38488	72.7	1
0	38509	72.75	1
0	38510	72.75	1
0	38527	72.8	1
0	38528	72.8	1
0	38529	72.8	1
0	38530	72.8	1
0	38574	72.85	1
0	38575	72.85	1
0	38592	72.9	1
0	38593	72.9	1
0	38594	72.9	1
0	38595	72.9	1
0	38616	72.95	1
0	38617	72.95	1
0	38658	73	1
0	38659	73	1
0	38660	73	1
0	38661	73	1
0	38682	73.05	1
0	38683	73.05	1
0	38702	73.1	1
0	38703	73.1	1
0	38704	73.1	1
0	38705	73.1	1
0	38729	73.15	1
0	38730	73.15	1
0	38747	73.2	1
0	38748	73.2	1
0	38749	73.2	1
0	38750	73.2	1
0	38771	73.25	1
0	38772	73.25	1
0	38789	73.3	1
0	38790	73.3	1
0	38791	73.3	1
0	38792	73.3	1
0	38813	73.35	1
0	38814	73.35	1
0	38836	73.4	1
0	38837	73.4	1
0	38838	73.4	1
0	38839	73.4	1
0	38860	73.45	1
0	38861	73.45	1
0	38878	73.5	1
0	38879	73.5	1
0	38880	73.5	1
0	38881	73.5	1
0	38902	73.55	1
0	38903	73.55	1
0	38920	73.6	1
0	38921	73.6	1
0	38922	73.6	1
0	38923	73.6	1
0	38944	73.65	1
0	38945	73.65	1
0	38962	73.7	1
0	38963	73.7	1
0	38964	73.7	1
0	38965	73.7	1
0	38986	73.75	1
0	38987	73.75	1
0	39004	73.8	1
0	39005	73.8	1
0	39006	73.8	1
0	39007	73.8	1
0	39028	73.85	1
0	39029	73.85	1
0	39046	73.9	1
0	39047	73.9	1
0	39048	73.9	1
0	39049	73.9	1
0	39070	73.95	1
0	39071	73.95	1
0	39089	74	1
0	39090	74	1
0	39091	74	1
0	39092	74	1
0	39113	74.05	1
0	39114	74.05	1
0	39133	74.1	1
0	39134	74.1	1
0	39135	74.1	1
0	39136	74.1	1
0	39160	74.15	1
0	39161	74.15	1
0	39178	74.2	1
0	39179	74.2	1
0	39180	74.2	1
0	39181	74.2	1
0	39202	74.25	1
0	39203	74.25	1
0	39220	74.3	1
0	39221	74.3	1
0	39222	74.3	1
0	39223	74.3	1
0	39244	74.35	1
0	39245	74.35	1
0	39262	74.4	1
0	39263	74.4	1
0	39264	74.4	1
0	39265	74.4	1
0	39286	74.45	1
0	39287	74.45	1
0	39304	74.5	1
0	39305	74.5	1
0	39306	74.5	1
0	39307	74.5	1
0	39328	74.55	1
0	39329	74.55	1
0	39403	74.6	1
0	39404	74.6	1
0	39405	74.6	1
0	39406	74.6	1
0	39435	74.65	1
0	39436	74.65	1
0	39453	74.7	1
0	39454	74.7	1
0	39455	74.7	1
0	39456	74.7	1
0	39500	74.75	1
0	39501	74.75	1
0	39518	74.8	1
0	39519	74.8	1
0	39520	74.8	1
0	39521	74.8	1
0	39542	74.85	1
0	39543	74.85	1
0	39560	74.9	1
0	39561	74.9	1
0	39562	74.9	1
0	39563	74.9	1
0	39584	74.95	1
0	39585	74.95	1
0	39603	75	1
0	39604	75	1
0	39605	75	1
0	39606	75	1
0	39627	75.05	1
0	39628	75.05	1
0	39647	75.1	1
0	39648	75.1	1
0	39649	75.1	1
0	39650	75.1	1
0	39718	75.15	1
0	39719	75.15	1
0	39736	75.2	1
0	39737	75.2	1
0	39738	75.2	1
0	39739	75.2	1
0	39760	75.25	1
0	39761	75.25	1
0	39801	75.3	1
0	39802	75.3	1
0	39803	75.3	1
0	39804	75.3	1
0	39825	75.35	1
0	39826	75.35	1
0	39843	75.4	1
0	39844	75.4	1
0	39845	75.4	1
0	39846	75.4	1
0	39867	75.45	1
0	39868	75.45	1
0	39885	75.5	1
0	39886	75.5	1
0	39887	75.5	1
0	39888	75.5	1
0	39909	75.55	1
0	39910	75.55	1
0	39927	75.6	1
0	39928	75.6	1
0	39929	75.6	1
0	39930	75.6	1
0	39951	75.65	1
0	39952	75.65	1
0	39992	75.7	1
0	39993	75.7	1
0	39994	75.7	1
0	39995	75.7	1
0	40016	75.75	1
0	40017	75.75	1
0	40034	75.8	1
0	40035	75.8	1
0	40036	75.8	1
0	40037	75.8	1
0	40081	75.85	1
0	40082	75.85	1
0	40099	75.9	1
0	40100	75.9	1
0	40101	75.9	1
0	40102	75.9	1
0	40123	75.95	1
0	40124	75.95	1
0	40142	76	1
0	40143	76	1
0	40144	76	1
0	40145	76	1
0	40166	76.05	1
0	40167	76.05	1
0	40186	76.1	1
0	40187	76.1	1
0	40188	76.1	1
0	40189	76.1	1
0	40213	76.15	1
0	40214	76.15	1
0	40231	76.2	1
0	40232	76.2	1
0	40233	76.2	1
0	40234	76.2	1
0	40272	76.25	1
0	40273	76.25	1
0	40290	76.3	1
0	40291	76.3	1
0	40292	76.3	1
0	40293	76.3	1
0	40314	76.35	1
0	40315	76.35	1
0	40355	76.4	1
0	40356	76.4	1
0	40357	76.4	1
0	40358	76.4	1
0	40379	76.45	1
0	40380	76.45	1
0	40397	76.5	1
0	40398	76.5	1
0	40399	76.5	1
0	40400	76.5	1
0	40421	76.55	1
0	40422	76.55	1
0	40439	76.6	1
0	40440	76.6	1
0	40441	76.6	1
0	40442	76.6	1
0	40463	76.65	1
0	40464	76.65	1
0	40481	76.7	1
0	40482	76.7	1
0	40483	76.7	1
0	40484	76.7	1
0	40505	76.75	1
0	40506	76.75	1
0	40567	76.8	1
0	40568	76.8	1
0	40569	76.8	1
0	40570	76.8	1
0	40591	76.85	1
0	40592	76.85	1
0	40609	76.9	1
0	40610	76.9	1
0	40611	76.9	1
0	40612	76.9	1
0	40656	76.95	1
0	40657	76.95	1
0	40675	77	1
0	40676	77	1
0	40677	77	1
0	40678	77	1
0	40699	77.05	1
0	40700	77.05	1
0	40719	77.1	1
0	40720	77.1	1
0	40721	77.1	1
0	40722	77.1	1
0	40746	77.15	1
0	40747	77.15	1
0	40764	77.2	1
0	40765	77.2	1
0	40766	77.2	1
0	40767	77.2	1
0	40788	77.25	1
0	40789	77.25	1
0	40806	77.3	1
0	40807	77.3	1
0	40808	77.3	1
0	40809	77.3	1
0	40874	77.35	1
0	40875	77.35	1
0	40892	77.4	1
0	40893	77.4	1
0	40894	77.4	1
0	40895	77.4	1
0	40916	77.45	1
0	40917	77.45	1
0	40957	77.5	1
0	40958	77.5	1
0	40959	77.5	1
0	40960	77.5	1
0	40981	77.55	1
0	40982	77.55	1
0	40999	77.6	1
0	41000	77.6	1
0	41001	77.6	1
0	41002	77.6	1
0	41023	77.65	1
0	41024	77.65	1
0	41041	77.7	1
0	41042	77.7	1
0	41043	77.7	1
0	41044	77.7	1
0	41065	77.75	1
0	41066	77.75	1
0	41083	77.8	1
0	41084	77.8	1
0	41085	77.8	1
0	41086	77.8	1
0	41107	77.85	1
0	41108	77.85	1
0	41148	77.9	1
0	41149	77.9	1
0	41150	77.9	1
0	41151	77.9	1
0	41172	77.95	1
0	41173	77.95	1
0	41191	78	1
0	41192	78	1
0	41193	78	1
0	41194	78	1
0	41238	78.05	1
0	41239	78.05	1
0	41258	78.1	1
0	41259	78.1	1
0	41260	78.1	1
0	41261	78.1	1
0	41285	78.15	1
0	41286	78.15	1
0	41303	78.2	1
0	41304	78.2	1
0	41305	78.2	1
0	41306	78.2	1
0	41327	78.25	1
0	41328	78.25	1
0	41345	78.3	1
0	41346	78.3	1
0	41347	78.3	1
0	41348	78.3	1
0	41369	78.35	1
0	41370	78.35	1
0	41387	78.4	1
0	41388	78.4	1
0	41389	78.4	1
0	41390	78.4	1
0	41455	78.45	1
0	41456	78.45	1
0	41473	78.5	1
0	41474	78.5	1
0	41475	78.5	1
0	41476	78.5	1
0	41497	78.55	1
0	41498	78.55	1
0	41538	78.6	1
0	41539	78.6	1
0	41540	78.6	1
0	41541	78.6	1
0	41562	78.65	1
0	41563	78.65	1
0	41580	78.7	1
0	41581	78.7	1
0	41582	78.7	1
0	41583	78.7	1
0	41604	78.75	1
0	41605	78.75	1
0	41622	78.8	1
0	41623	78.8	1
0	41624	78.8	1
0	41625	78.8	1
0	41646	78.85	1
0	41647	78.85	1
0	41664	78.9	1
0	41665	78.9	1
0	41666	78.9	1
0	41667	78.9	1
0	41688	78.95	1
0	41689	78.95	1
0	41730	79	1
0	41731	79	1
0	41732	79	1
0	41733	79	1
0	41754	79.05	1
0	41755	79.05	1
0	41774	79.1	1
0	41775	79.1	1
0	41776	79.1	1
0	41777	79.1	1
0	41824	79.15	1
0	41825	79.15	1
0	41842	79.2	1
0	41843	79.2	1
0	41844	79.2	1
0	41845	79.2	1
0	41866	79.25	1
0	41867	79.25	1
0	41884	79.3	1
0	41885	79.3	1
0	41886	79.3	1
0	41887	79.3	1
0	41908	79.35	1
0	41909	79.35	1
0	41926	79.4	1
0	41927	79.4	1
0	41928	79.4	1
0	41929	79.4	1
0	41950	79.45	1
0	41951	79.45	1
0	41968	79.5	1
0	41969	79.5	1
0	41970	79.5	1
0	41971	79.5	1
0	42036	79.55	1
0	42037	79.55	1
0	42054	79.6	1
0	42055	79.6	1
0	42056	79.6	1
0	42057	79.6	1
0	42078	79.65	1
0	42079	79.65	1
0	42119	79.7	1
0	42120	79.7	1
0	42121	79.7	1
0	42122	79.7	1
0	42143	79.75	1
0	42144	79.75	1
0	42161	79.8	1
0	42162	79.8	1
0	42163	79.8	1
0	42164	79.8	1
0	42185	79.85	1
0	42186	79.85	1
0	42203	79.9	1
0	42204	79.9	1
0	42205	79.9	1
0	42206	79.9	1
0	42227	79.95	1
0	42228	79.95	1
0	42246	80	1
0	42247	80	1
0	42248	80	1
0	42249	80	1
0	42270	80.05	1
0	42271	80.05	1
0	42295	80.1	1
0	42296	80.1	1
0	42297	80.1	1
0	42298	80.1	1
0	42322	80.15	1
0	42323	80.15	1
0	42340	80.2	1
0	42341	80.2	1
0	42342	80.2	1
0	42343	80.2	1
0	42364	80.25	1
0	42365	80.25	1
0	42382	80.3	1
0	42383	80.3	1
0	42384	80.3	1
0	42385	80.3	1
0	42406	80.35	1
0	42407	80.35	1
0	42424	80.4	1
0	42425	80.4	1
0	42426	80.4	1
0	42427	80.4	1
0	42448	80.45	1
0	42449	80.45	1
0	42466	80.5	1
0	42467	80.5	1
0	42468	80.5	1
0	42469	80.5	1
0	42490	80.55	1
0	42491	80.55	1
0	42508	80.6	1
0	42509	80.6	1
0	42510	80.6	1
0	42511	80.6	1
0	42532	80.65	1
0	42533	80.65	1
0	42550	80.7	1
0	42551	80.7	1
0	42552	80.7	1
0	42553	80.7	1
0	42574	80.75	1
0	42575	80.75	1
0	42592	80.8	1
0	42593	80.8	1
0	42594	80.8	1
0	42595	80.8	1
0	42616	80.85	1
0	42617	80.85	1
0	42634	80.9	1
0	42635	80.9	1
0	42636	80.9	1
0	42637	80.9	1
0	42658	80.95	1
0	42659	80.95	1
0	42677	81	1
0	42678	81	1
0	42679	81	1
0	42680	81	1
0	42701	81.05	1
0	42702	81.05	1
0	42721	81.1	1
0	42722	81.1	1
0	42723	81.1	1
0	42724	81.1	1
0	42748	81.15	1
0	42749	81.15	1
0	42766	81.2	1
0	42767	81.2	1
0	42768	81.2	1
0	42769	81.2	1
0	42790	81.25	1
0	42791	81.25	1
0	42831	81.3	1
0	42832	81.3	1
0	42833	81.3	1
0	42834	81.3	1
0	42855	81.35	1
0	42856	81.35	1
0	42873	81.4	1
0	42874	81.4	1
0	42875	81.4	1
0	42876	81.4	1
0	42954	81.45	1
0	42955	81.45	1
0	42980	81.5	1
0	42981	81.5	1
0	42982	81.5	1
0	42983	81.5	1
0	43004	81.55	1
0	43005	81.55	1
0	43022	81.6	1
0	43023	81.6	1
0	43024	81.6	1
0	43025	81.6	1
0	43046	81.65	1
0	43047	81.65	1
0	43064	81.7	1
0	43065	81.7	1
0	43066	81.7	1
0	43067	81.7	1
0	43088	81.75	1
0	43089	81.75	1
0	43106	81.8	1
0	43107	81.8	1
0	43108	81.8	1
0	43109	81.8	1
0	43153	81.85	1
0	43154	81.85	1
0	43171	81.9	1
0	43172	81.9	1
0	43173	81.9	1
0	43174	81.9	1
0	43195	81.95	1
0	43196	81.95	1
0	43237	82	1
0	43238	82	1
0	43239	82	1
0	43240	82	1
0	43261	82.05	1
0	43262	82.05	1
0	43281	82.1	1
0	43282	82.1	1
0	43283	82.1	1
0	43284	82.1	1
0	43308	82.15	1
0	43309	82.15	1
0	43326	82.2	1
0	43327	82.2	1
0	43328	82.2	1
0	43329	82.2	1
0	43350	82.25	1
0	43351	82.25	1
0	43368	82.3	1
0	43369	82.3	1
0	43370	82.3	1
0	43371	82.3	1
0	43392	82.35	1
0	43393	82.35	1
0	43433	82.4	1
0	43434	82.4	1
0	43435	82.4	1
0	43436	82.4	1
0	43457	82.45	1
0	43458	82.45	1
0	43475	82.5	1
0	43476	82.5	1
0	43477	82.5	1
0	43478	82.5	1
0	43543	82.55	1
0	43544	82.55	1
0	43561	82.6	1
0	43562	82.6	1
0	43563	82.6	1
0	43564	82.6	1
0	43585	82.65	1
0	43586	82.65	1
0	43603	82.7	1
0	43604	82.7	1
0	43605	82.7	1
0	43606	82.7	1
0	43627	82.75	1
0	43628	82.75	1
0	43645	82.8	1
0	43646	82.8	1
0	43647	82.8	1
0	43648	82.8	1
0	43669	82.85	1
0	43670	82.85	1
0	43687	82.9	1
0	43688	82.9	1
0	43689	82.9	1
0	43690	82.9	1
0	43734	82.95	1
0	43735	82.95	1
0	43753	83	1
0	43754	83	1
0	43755	83	1
0	43756	83	1
0	43777	83.05	1
0	43778	83.05	1
0	43820	83.1	1
0	43821	83.1	1
0	43822	83.1	1
0	43823	83.1	1
0	43847	83.15	1
0	43848	83.15	1
0	43865	83.2	1
0	43866	83.2	1
0	43867	83.2	1
0	43868	83.2	1
0	43889	83.25	1
0	43890	83.25	1
0	43907	83.3	1
0	43908	83.3	1
0	43909	83.3	1
0	43910	83.3	1
0	43931	83.35	1
0	43932	83.35	1
0	43949	83.4	1
0	43950	83.4	1
0	43951	83.4	1
0	43952	83.4	1
0	43973	83.45	1
0	43974	83.45	1
0	44014	83.5	1
0	44015	83.5	1
0	44016	83.5	1
0	44017	83.5	1
0	44038	83.55	1
0	44039	83.55	1
0	44056	83.6	1
0	44057	83.6	1
0	44058	83.6	1
0	44059	83.6	1
0	44124	83.65	1
0	44125	83.65	1
0	44142	83.7	1
0	44143	83.7	1
0	44144	83.7	1
0	44145	83.7	1
0	44166	83.75	1
0	44167	83.75	1
0	44184	83.8	1
0	44185	83.8	1
0	44186	83.8	1
0	44187	83.8	1
0	44208	83.85	1
0	44209	83.85	1
0	44226	83.9	1
0	44227	83.9	1
0	44228	83.9	1
0	44229	83.9	1
0	44250	83.95	1
0	44251	83.95	1
0	44269	84	1
0	44270	84	1
0	44271	84	1
0	44272	84	1
0	44316	84.05	1
0	44317	84.05	1
0	44336	84.1	1
0	44337	84.1	1
0	44338	84.1	1
0	44339	84.1	1
0	44363	84.15	1
0	44364	84.15	1
0	44425	84.2	1
0	44426	84.2	1
0	44427	84.2	1
0	44428	84.2	1
0	44449	84.25	1
0	44450	84.25	1
0	44467	84.3	1
0	44468	84.3	1
0	44469	84.3	1
0	44470	84.3	1
0	44491	84.35	1
0	44492	84.35	1
0	44509	84.4	1
0	44510	84.4	1
0	44511	84.4	1
0	44512	84.4	1
0	44533	84.45	1
0	44534	84.45	1
0	44551	84.5	1
0	44552	84.5	1
0	44553	84.5	1
0	44554	84.5	1
0	44575	84.55	1
0	44576	84.55	1
0	44616	84.6	1
0	44617	84.6	1
0	44618	84.6	1
0	44619	84.6	1
0	44640	84.65	1
0	44641	84.65	1
0	44658	84.7	1
0	44659	84.7	1
0	44660	84.7	1
0	44661	84.7	1
0	44705	84.75	1
0	44706	84.75	1
0	44723	84.8	1
0	44724	84.8	1
0	44725	84.8	1
0	44726	84.8	1
0	44747	84.85	1
0	44748	84.85	1
0	44765	84.9	1
0	44766	84.9	1
0	44767	84.9	1
0	44768	84.9	1
0	44789	84.95	1
0	44790	84.95	1
0	44808	85	1
0	44809	85	1
0	44810	85	1
0	44811	85	1
0	44832	85.05	1
0	44833	85.05	1
0	44852	85.1	1
0	44853	85.1	1
0	44854	85.1	1
0	44855	85.1	1
0	44902	85.15	1
0	44903	85.15	1
0	44920	85.2	1
0	44921	85.2	1
0	44922	85.2	1
0	44923	85.2	1
0	44944	85.25	1
0	44945	85.25	1
0	45001	85.3	1
0	45002	85.3	1
0	45003	85.3	1
0	45004	85.3	1
0	45025	85.35	1
0	45026	85.35	1
0	45043	85.4	1
0	45044	85.4	1
0	45045	85.4	1
0	45046	85.4	1
0	45067	85.45	1
0	45068	85.45	1
0	45085	85.5	1
0	45086	85.5	1
0	45087	85.5	1
0	45088	85.5	1
0	45109	85.55	1
0	45110	85.55	1
0	45127	85.6	1
0	45128	85.6	1
0	45129	85.6	1
0	45130	85.6	1
0	45151	85.65	1
0	45152	85.65	1
0	45192	85.7	1
0	45193	85.7	1
0	45194	85.7	1
0	45195	85.7	1
0	45216	85.75	1
0	45217	85.75	1
0	45234	85.8	1
0	45235	85.8	1
0	45236	85.8	1
0	45237	85.8	1
0	45302	85.85	1
0	45303	85.85	1
0	45320	85.9	1
0	45321	85.9	1
0	45322	85.9	1
0	45323	85.9	1
[...]
0	46662	88.45	1
0	46679	88.5	1
0	46680	88.5	1
0	46681	88.5	1
0	46682	88.5	1
0	46703	88.55	1
0	46704	88.55	1
0	46738	88.6	1
0	46739	88.6	1
0	46740	88.6	1
0	46741	88.6	1
0	46762	88.65	1
0	46763	88.65	1
0	46780	88.7	1
0	46781	88.7	1
0	46782	88.7	1
0	46783	88.7	1
0	46804	88.75	1
0	46805	88.75	1
0	46822	88.8	1
0	46823	88.8	1
0	46824	88.8	1
0	46825	88.8	1
0	46846	88.85	1
0	46847	88.85	1
0	46864	88.9	1
0	46865	88.9	1
0	46866	88.9	1
0	46867	88.9	1
0	46888	88.95	1
0	46889	88.95	1
0	46930	89	1
0	46931	89	1
0	46932	89	1
0	46933	89	1
0	46954	89.05	1
0	46955	89.05	1
0	46974	89.1	1
0	46975	89.1	1
0	46976	89.1	1
0	46977	89.1	1
0	47058	89.15	1
0	47059	89.15	1
0	47084	89.2	1
0	47085	89.2	1
0	47086	89.2	1
0	47087	89.2	1
0	47108	89.25	1
0	47109	89.25	1
0	47126	89.3	1
0	47127	89.3	1
0	47128	89.3	1
0	47129	89.3	1
0	47150	89.35	1
0	47151	89.35	1
0	47168	89.4	1
0	47169	89.4	1
0	47170	89.4	1
0	47171	89.4	1
0	47192	89.45	1
0	47193	89.45	1
0	47210	89.5	1
0	47211	89.5	1
0	47212	89.5	1
0	47213	89.5	1
0	47257	89.55	1
0	47258	89.55	1
0	47275	89.6	1
0	47276	89.6	1
0	47277	89.6	1
0	47278	89.6	1
0	47299	89.65	1
0	47300	89.65	1
0	47340	89.7	1
0	47341	89.7	1
0	47342	89.7	1
0	47343	89.7	1
0	47364	89.75	1
0	47365	89.75	1
0	47382	89.8	1
0	47383	89.8	1
0	47384	89.8	1
0	47385	89.8	1
0	47406	89.85	1
0	47407	89.85	1
0	47424	89.9	1
0	47425	89.9	1
0	47426	89.9	1
0	47427	89.9	1
0	47448	89.95	1
0	47449	89.95	1
0	47467	90	1
0	47468	90	1
0	47469	90	1
0	47470	90	1
0	47491	90.05	1
0	47492	90.05	1
0	47534	90.1	1
0	47535	90.1	1
0	47536	90.1	1
0	47537	90.1	1
0	47561	90.15	1
0	47562	90.15	1
0	47579	90.2	1
0	47580	90.2	1
0	47581	90.2	1
0	47582	90.2	1
0	47647	90.25	1
0	47648	90.25	1
0	47665	90.3	1
0	47666	90.3	1
0	47667	90.3	1
0	47668	90.3	1
0	47689	90.35	1
0	47690	90.35	1
0	47707	90.4	1
0	47708	90.4	1
0	47709	90.4	1
0	47710	90.4	1
0	47731	90.45	1
0	47732	90.45	1
0	47749	90.5	1
0	47750	90.5	1
0	47751	90.5	1
0	47752	90.5	1
0	47773	90.55	1
0	47774	90.55	1
0	47791	90.6	1
0	47792	90.6	1
0	47793	90.6	1
0	47794	90.6	1
0	47838	90.65	1
0	47839	90.65	1
0	47856	90.7	1
0	47857	90.7	1
0	47858	90.7	1
0	47859	90.7	1
0	47880	90.75	1
0	47881	90.75	1
0	47921	90.8	1
0	47922	90.8	1
0	47923	90.8	1
0	47924	90.8	1
0	47945	90.85	1
0	47946	90.85	1
0	47963	90.9	1
0	47964	90.9	1
0	47965	90.9	1
0	47966	90.9	1
0	47987	90.95	1
0	47988	90.95	1
0	48006	91	1
0	48007	91	1
0	48008	91	1
0	48009	91	1
0	48030	91.05	1
0	48031	91.05	1
0	48050	91.1	1
0	48051	91.1	1
0	48052	91.1	1
0	48053	91.1	1
0	48077	91.15	1
0	48078	91.15	1
0	48112	91.2	1
0	48113	91.2	1
0	48114	91.2	1
0	48115	91.2	1
0	48136	91.25	1
0	48137	91.25	1
0	48154	91.3	1
0	48155	91.3	1
0	48156	91.3	1
0	48157	91.3	1
0	48222	91.35	1
0	48223	91.35	1
0	48240	91.4	1
0	48241	91.4	1
0	48242	91.4	1
0	48243	91.4	1
0	48264	91.45	1
0	48265	91.45	1
0	48282	91.5	1
0	48283	91.5	1
0	48284	91.5	1
0	48285	91.5	1
0	48306	91.55	1
0	48307	91.55	1
0	48324	91.6	1
0	48325	91.6	1
0	48326	91.6	1
0	48327	91.6	1
0	48348	91.65	1
0	48349	91.65	1
0	48366	91.7	1
0	48367	91.7	1
0	48368	91.7	1
0	48369	91.7	1
0	48413	91.75	1
0	48414	91.75	1
0	48431	91.8	1
0	48432	91.8	1
0	48433	91.8	1
0	48434	91.8	1
0	48455	91.85	1
0	48456	91.85	1
0	48496	91.9	1
0	48497	91.9	1
0	48498	91.9	1
0	48499	91.9	1
0	48520	91.95	1
0	48521	91.95	1
0	48539	92	1
0	48540	92	1
0	48541	92	1
0	48542	92	1
0	48563	92.05	1
0	48564	92.05	1
0	48583	92.1	1
0	48584	92.1	1
0	48585	92.1	1
0	48586	92.1	1
0	48610	92.15	1
0	48611	92.15	1
0	48628	92.2	1
0	48629	92.2	1
0	48630	92.2	1
0	48631	92.2	1
0	48652	92.25	1
0	48653	92.25	1
0	48675	92.3	1
0	48676	92.3	1
0	48677	92.3	1
0	48678	92.3	1
0	48699	92.35	1
0	48700	92.35	1
0	48717	92.4	1
0	48718	92.4	1
0	48719	92.4	1
0	48720	92.4	1
0	48741	92.45	1
0	48742	92.45	1
0	48759	92.5	1
0	48760	92.5	1
0	48761	92.5	1
0	48762	92.5	1
0	48783	92.55	1
0	48784	92.55	1
0	48801	92.6	1
0	48802	92.6	1
0	48803	92.6	1
0	48804	92.6	1
0	48825	92.65	1
0	48826	92.65	1
0	48843	92.7	1
0	48844	92.7	1
0	48845	92.7	1
0	48846	92.7	1
0	48867	92.75	1
0	48868	92.75	1
0	48885	92.8	1
0	48886	92.8	1
0	48887	92.8	1
0	48888	92.8	1
0	48909	92.85	1
0	48910	92.85	1
0	48927	92.9	1
0	48928	92.9	1
0	48929	92.9	1
0	48930	92.9	1
0	48951	92.95	1
0	48952	92.95	1
0	48970	93	1
0	48971	93	1
0	48972	93	1
0	48973	93	1
0	48994	93.05	1
0	48995	93.05	1
0	49014	93.1	1
0	49015	93.1	1
0	49016	93.1	1
0	49017	93.1	1
0	49041	93.15	1
0	49042	93.15	1
0	49059	93.2	1
0	49060	93.2	1
0	49061	93.2	1
0	49062	93.2	1
0	49083	93.25	1
0	49084	93.25	1
0	49101	93.3	1
0	49102	93.3	1
0	49103	93.3	1
0	49104	93.3	1
0	49125	93.35	1
0	49126	93.35	1
0	49143	93.4	1
0	49144	93.4	1
0	49145	93.4	1
0	49146	93.4	1
0	49167	93.45	1
0	49168	93.45	1
0	49190	93.5	1
0	49191	93.5	1
0	49192	93.5	1
0	49193	93.5	1
0	49214	93.55	1
0	49215	93.55	1
0	49232	93.6	1
0	49233	93.6	1
0	49234	93.6	1
0	49235	93.6	1
0	49256	93.65	1
0	49257	93.65	1
0	49274	93.7	1
0	49275	93.7	1
0	49276	93.7	1
0	49277	93.7	1
0	49298	93.75	1
0	49299	93.75	1
0	49316	93.8	1
0	49317	93.8	1
0	49318	93.8	1
0	49319	93.8	1
0	49340	93.85	1
0	49341	93.85	1
0	49381	93.9	1
0	49382	93.9	1
0	49383	93.9	1
0	49384	93.9	1
0	49405	93.95	1
0	49406	93.95	1
0	49424	94	1
0	49425	94	1
0	49426	94	1
0	49427	94	1
0	49505	94.05	1
0	49506	94.05	1
0	49533	94.1	1
0	49534	94.1	1
0	49535	94.1	1
0	49536	94.1	1
0	49560	94.15	1
0	49561	94.15	1
0	49578	94.2	1
0	49579	94.2	1
0	49580	94.2	1
0	49581	94.2	1
0	49602	94.25	1
0	49603	94.25	1
0	49620	94.3	1
0	49621	94.3	1
0	49622	94.3	1
0	49623	94.3	1
0	49644	94.35	1
0	49645	94.35	1
0	49662	94.4	1
0	49663	94.4	1
0	49664	94.4	1
0	49665	94.4	1
0	49709	94.45	1
0	49710	94.45	1
0	49727	94.5	1
0	49728	94.5	1
0	49729	94.5	1
0	49730	94.5	1
0	49751	94.55	1
0	49752	94.55	1
0	49813	94.6	1
0	49814	94.6	1
0	49815	94.6	1
0	49816	94.6	1
0	49837	94.65	1
0	49838	94.65	1
0	49855	94.7	1
0	49856	94.7	1
0	49857	94.7	1
0	49858	94.7	1
0	49879	94.75	1
0	49880	94.75	1
0	49897	94.8	1
0	49898	94.8	1
0	49899	94.8	1
0	49900	94.8	1
0	49921	94.85	1
0	49922	94.85	1
0	49939	94.9	1
0	49940	94.9	1
0	49941	94.9	1
0	49942	94.9	1
0	49963	94.95	1
0	49964	94.95	1
0	50005	95	1
0	50006	95	1
0	50007	95	1
0	50008	95	1
0	50029	95.05	1
0	50030	95.05	1
0	50049	95.1	1
0	50050	95.1	1
0	50051	95.1	1
0	50052	95.1	1
0	50104	95.15	1
0	50105	95.15	1
0	50122	95.2	1
0	50123	95.2	1
0	50124	95.2	1
0	50125	95.2	1
0	50146	95.25	1
0	50147	95.25	1
0	50164	95.3	1
0	50165	95.3	1
0	50166	95.3	1
0	50167	95.3	1
0	50188	95.35	1
0	50189	95.35	1
0	50206	95.4	1
0	50207	95.4	1
0	50208	95.4	1
0	50209	95.4	1
0	50230	95.45	1
0	50231	95.45	1
0	50248	95.5	1
0	50249	95.5	1
0	50250	95.5	1
0	50251	95.5	1
0	50295	95.55	1
0	50296	95.55	1
0	50313	95.6	1
0	50314	95.6	1
0	50315	95.6	1
0	50316	95.6	1
0	50337	95.65	1
0	50338	95.65	1
0	50399	95.7	1
0	50400	95.7	1
0	50401	95.7	1
0	50402	95.7	1
0	50423	95.75	1
0	50424	95.75	1
0	50441	95.8	1
0	50442	95.8	1
0	50443	95.8	1
0	50444	95.8	1
0	50465	95.85	1
0	50466	95.85	1
0	50483	95.9	1
0	50484	95.9	1
0	50485	95.9	1
0	50486	95.9	1
0	50507	95.95	1
0	50508	95.95	1
0	50526	96	1
0	50527	96	1
0	50528	96	1
0	50529	96	1
0	50550	96.05	1
0	50551	96.05	1
0	50593	96.1	1
0	50594	96.1	1
0	50595	96.1	1
0	50596	96.1	1
0	50620	96.15	1
0	50621	96.15	1
0	50638	96.2	1
0	50639	96.2	1
0	50640	96.2	1
0	50641	96.2	1
0	50667	96.25	1
0	50668	96.25	1
0	50685	96.3	1
0	50686	96.3	1
0	50687	96.3	1
0	50688	96.3	1
0	50709	96.35	1
0	50710	96.35	1
0	50727	96.4	1
0	50728	96.4	1
0	50729	96.4	1
0	50730	96.4	1
0	50751	96.45	1
0	50752	96.45	1
0	50769	96.5	1
0	50770	96.5	1
0	50771	96.5	1
0	50772	96.5	1
0	50793	96.55	1
0	50794	96.55	1
0	50811	96.6	1
0	50812	96.6	1
0	50813	96.6	1
0	50814	96.6	1
0	50835	96.65	1
0	50836	96.65	1
0	50853	96.7	1
0	50854	96.7	1
0	50855	96.7	1
0	50856	96.7	1
0	50877	96.75	1
0	50878	96.75	1
0	50895	96.8	1
0	50896	96.8	1
0	50897	96.8	1
0	50898	96.8	1
0	50919	96.85	1
0	50920	96.85	1
0	50937	96.9	1
0	50938	96.9	1
0	50939	96.9	1
0	50940	96.9	1
0	50961	96.95	1
0	50962	96.95	1
0	50980	97	1
0	50981	97	1
0	50982	97	1
0	50983	97	1
0	51004	97.05	1
0	51005	97.05	1
0	51024	97.1	1
0	51025	97.1	1
0	51026	97.1	1
0	51027	97.1	1
0	51051	97.15	1
0	51052	97.15	1
0	51069	97.2	1
0	51070	97.2	1
0	51071	97.2	1
0	51072	97.2	1
0	51093	97.25	1
0	51094	97.25	1
0	51111	97.3	1
0	51112	97.3	1
0	51113	97.3	1
0	51114	97.3	1
0	51135	97.35	1
0	51136	97.35	1
0	51153	97.4	1
0	51154	97.4	1
0	51155	97.4	1
0	51156	97.4	1
0	51177	97.45	1
0	51178	97.45	1
0	51195	97.5	1
0	51196	97.5	1
0	51197	97.5	1
0	51198	97.5	1
0	51219	97.55	1
0	51220	97.55	1
0	51237	97.6	1
0	51238	97.6	1
0	51239	97.6	1
0	51240	97.6	1
0	51261	97.65	1
0	51262	97.65	1
0	51302	97.7	1
0	51303	97.7	1
0	51304	97.7	1
0	51305	97.7	1
0	51326	97.75	1
0	51327	97.75	1
0	51344	97.8	1
0	51345	97.8	1
0	51346	97.8	1
0	51347	97.8	1
0	51425	97.85	1
0	51426	97.85	1
0	51451	97.9	1
0	51452	97.9	1
0	51453	97.9	1
0	51454	97.9	1
0	51475	97.95	1
0	51476	97.95	1
0	51494	98	1
0	51495	98	1
0	51496	98	1
0	51497	98	1
0	51518	98.05	1
0	51519	98.05	1
0	51538	98.1	1
0	51539	98.1	1
0	51540	98.1	1
0	51541	98.1	1
0	51565	98.15	1
0	51566	98.15	1
0	51583	98.2	1
0	51584	98.2	1
0	51585	98.2	1
0	51586	98.2	1
0	51630	98.25	1
0	51631	98.25	1
0	51648	98.3	1
0	51649	98.3	1
0	51650	98.3	1
0	51651	98.3	1
0	51672	98.35	1
0	51673	98.35	1
0	51707	98.4	1
0	51708	98.4	1
0	51709	98.4	1
0	51710	98.4	1
0	51731	98.45	1
0	51732	98.45	1
0	51749	98.5	1
0	51750	98.5	1
0	51751	98.5	1
0	51752	98.5	1
0	51773	98.55	1
0	51774	98.55	1
0	51791	98.6	1
0	51792	98.6	1
0	51793	98.6	1
0	51794	98.6	1
0	51815	98.65	1
0	51816	98.65	1
0	51833	98.7	1
0	51834	98.7	1
0	51835	98.7	1
0	51836	98.7	1
0	51857	98.75	1
0	51858	98.75	1
0	51880	98.8	1
0	51881	98.8	1
0	51882	98.8	1
0	51883	98.8	1
0	51904	98.85	1
0	51905	98.85	1
0	51922	98.9	1
0	51923	98.9	1
0	51924	98.9	1
0	51925	98.9	1
0	51946	98.95	1
0	51947	98.95	1
0	51965	99	1
0	51966	99	1
0	51967	99	1
0	51968	99	1
0	51989	99.05	1
0	51990	99.05	1
0	52009	99.1	1
0	52010	99.1	1
0	52011	99.1	1
0	52012	99.1	1
0	52036	99.15	1
0	52037	99.15	1
0	52054	99.2	1
0	52055	99.2	1
0	52056	99.2	1
0	52057	99.2	1
0	52078	99.25	1
0	52079	99.25	1
0	52096	99.3	1
0	52097	99.3	1
0	52098	99.3	1
0	52099	99.3	1
0	52120	99.35	1
0	52121	99.35	1
0	52138	99.4	1
0	52139	99.4	1
0	52140	99.4	1
0	52141	99.4	1
0	52162	99.45	1
0	52163	99.45	1
0	52180	99.5	1
0	52181	99.5	1
0	52182	99.5	1
0	52183	99.5	1
0	52204	99.55	1
0	52205	99.55	1
0	52222	99.6	1
0	52223	99.6	1
0	52224	99.6	1
0	52225	99.6	1
0	52246	99.65	1
0	52247	99.65	1
0	52264	99.7	1
0	52265	99.7	1
0	52266	99.7	1
0	52267	99.7	1
0	52288	99.75	1
0	52289	99.75	1
0	52306	99.8	1
0	52307	99.8	1
0	52308	99.8	1
0	52309	99.8	1
0	52330	99.85	1
0	52331	99.85	1
0	52348	99.9	1
0	52349	99.9	1
0	52350	99.9	1
0	52351	99.9	1
0	52372	99.95	1
0	52373	99.95	1
0	52448	100	1
0	52449	100	1
0	52450	100	1
0	52451	100	1
1	25	0.1	nan
1	27	0.1	nan
1	459	1.1	nan
1	460	1.1	nan
1	985	2.1	nan
1	986	2.1	nan
1	1511	3.1	nan
1	1512	3.1	nan
1	2037	4.1	nan
1	2038	4.1	nan
1	2565	5.1	nan
1	2566	5.1	nan
1	3093	6.1	nan
1	3094	6.1	nan
1	3575	7.1	nan
1	3576	7.1	nan
1	4103	8.1	nan
1	4104	8.1	nan
1	4631	9.1	nan
1	4632	9.1	nan
1	5159	10.1	nan
1	5160	10.1	nan
1	5907	11.1	nan
1	5908	11.1	nan
1	6410	12.1	nan
1	6411	12.1	nan
1	6958	13.1	nan
1	6959	13.1	nan
1	7506	14.1	nan
1	7507	14.1	nan
1	8054	15.1	nan
1	8055	15.1	nan
1	8603	16.1	nan
1	8604	16.1	nan
1	9152	17.1	nan
1	9153	17.1	nan
1	9654	18.1	nan
1	9655	18.1	nan
1	10202	19.1	nan
1	10203	19.1	nan
1	10750	20.1	nan
1	10751	20.1	nan
1	11299	21.1	nan
1	11300	21.1	nan
1	11848	22.1	nan
1	11849	22.1	nan
1	12350	23.1	nan
1	12351	23.1	nan
1	12898	24.1	nan
1	12899	24.1	nan
1	13446	25.1	nan
1	13447	25.1	nan
1	13995	26.1	nan
1	13996	26.1	nan
1	14544	27.1	nan
1	14545	27.1	nan
1	15093	28.1	nan
1	15094	28.1	nan
1	15596	29.1	nan
1	15597	29.1	nan
1	16145	30.1	nan
1	16146	30.1	nan
1	16694	31.1	nan
1	16695	31.1	nan
1	17243	32.1	nan
1	17244	32.1	nan
1	17792	33.1	nan
1	17793	33.1	nan
1	18295	34.1	nan
1	18296	34.1	nan
1	18844	35.1	nan
1	18845	35.1	nan
1	19393	36.1	nan
1	19394	36.1	nan
1	19942	37.1	nan
1	19943	37.1	nan
1	20485	38.1	nan
1	20486	38.1	nan
1	21028	39.1	nan
1	21029	39.1	nan
1	21531	40.1	nan
1	21532	40.1	nan
1	22080	41.1	nan
1	22081	41.1	nan
1	22629	42.1	nan
1	22630	42.1	nan
1	23178	43.1	nan
1	23179	43.1	nan
1	23727	44.1	nan
1	23728	44.1	nan
1	24230	45.1	nan
1	24231	45.1	nan
1	24779	46.1	nan
1	24780	46.1	nan
1	25344	47.1	nan
1	25345	47.1	nan
1	25893	48.1	nan
1	25894	48.1	nan
1	26442	49.1	nan
1	26443	49.1	nan
1	26991	50.1	nan
1	26992	50.1	nan
1	27484	51.1	nan
1	27485	51.1	nan
1	28017	52.1	nan
1	28018	52.1	nan
1	28538	53.1	nan
1	28539	53.1	nan
1	29093	54.1	nan
1	29094	54.1	nan
1	29524	55.1	nan
1	29525	55.1	nan
1	30038	56.1	nan
1	30039	56.1	nan
1	30536	57.1	nan
1	30537	57.1	nan
1	31006	58.1	nan
1	31007	58.1	nan
1	31460	59.1	nan
1	31461	59.1	nan
1	31974	60.1	nan
1	31975	60.1	nan
1	32513	61.1	nan
1	32514	61.1	nan
1	33052	62.1	nan
1	33053	62.1	nan
1	33568	63.1	nan
1	33569	63.1	nan
1	33999	64.1	nan
1	34000	64.1	nan
1	34513	65.1	nan
1	34514	65.1	nan
1	34967	66.1	nan
1	34968	66.1	nan
1	35481	67.1	nan
1	35482	67.1	nan
1	36031	68.1	nan
1	36032	68.1	nan
1	36568	69.1	nan
1	36569	69.1	nan
1	37106	70.1	nan
1	37107	70.1	nan
1	37622	71.1	nan
1	37623	71.1	nan
1	38161	72.1	nan
1	38162	72.1	nan
1	38700	73.1	nan
1	38701	73.1	nan
1	39131	74.1	nan
1	39132	74.1	nan
1	39645	75.1	nan
1	39646	75.1	nan
1	40184	76.1	nan
1	40185	76.1	nan
1	40717	77.1	nan
1	40718	77.1	nan
1	41256	78.1	nan
1	41257	78.1	nan
1	41772	79.1	nan
1	41773	79.1	nan
1	42293	80.1	nan
1	42294	80.1	nan
1	42719	81.1	nan
1	42720	81.1	nan
1	43279	82.1	nan
1	43280	82.1	nan
1	43818	83.1	nan
1	43819	83.1	nan
1	44334	84.1	nan
1	44335	84.1	nan
1	44850	85.1	nan
1	44851	85.1	nan
1	45405	86.1	nan
1	45406	86.1	nan
1	45944	87.1	nan
1	45945	87.1	nan
1	46483	88.1	nan
1	46484	88.1	nan
1	46972	89.1	nan
1	46973	89.1	nan
1	47532	90.1	nan
1	47533	90.1	nan
1	48048	91.1	nan
1	48049	91.1	nan
1	48581	92.1	nan
1	48582	92.1	nan
1	49012	93.1	nan
1	49013	93.1	nan
1	49531	94.1	nan
1	49532	94.1	nan
1	50047	95.1	nan
1	50048	95.1	nan
1	50591	96.1	nan
1	50592	96.1	nan
1	51022	97.1	nan
1	51023	97.1	nan
1	51536	98.1	nan
1	51537	98.1	nan
1	52007	99.1	nan
1	52008	99.1	nan
2	5409	10.483429964638	141
2	5427	10.497269976305	282
2	5470	10.511109987979	423
2	5488	10.524949999662	564
2	5506	10.538790011352	705
2	5542	10.552630023051	846
2	5560	10.566470034757	987
2	5578	10.580310046472	1128
2	5596	10.594150058194	1269
2	5639	10.607990069924	1410
2	5657	10.621830081662	1551
2	6181	11.583432253194	1692
2	6494	12.133433443579	1833
2	7085	13.233435918636	1974
2	7676	14.333438522347	2115
2	8267	15.433441258466	2256
2	8859	16.533444131004	2397
2	9451	17.633447144227	2538
2	9756	18.183448704999	2679
2	10347	19.283451937806	2820
2	10938	20.383455323081	2961
2	11530	21.483458865979	3102
2	12122	22.583462571912	3243
2	12434	23.133464487776	3384
2	13025	24.233468448947	3525
2	13616	25.333472587754	3666
2	14208	26.433476910451	3807
2	14800	27.53348142352	3948
2	15392	28.633486133649	4089
2	15698	29.183488564757	4230
2	16290	30.283493583442	4371
2	16882	31.383498816722	4512
2	17474	32.483504271873	4653
2	18066	33.583509956275	4794
2	18379	34.133512886773	4935
2	18971	35.233518929028	5076
2	19563	36.33352521918	5217
2	20155	37.433531764627	5358
2	20735	38.533538572645	5499
2	21327	39.6335456503	5640
2	21633	40.183549292375	5781
2	22225	41.28355678708	5922
2	22817	42.383564567602	6063
2	23409	43.48357263953	6204
2	24001	44.583581007751	6345
2	24314	45.133585304275	6486
2	24906	46.233594124216	6627
2	25201	46.783598648256	6768
2	25514	47.333603248624	6909
2	26106	48.433612678688	7050
2	26698	49.533622414119	7191
2	27284	50.633626728067	7332
2	27585	51.183626728067	7473
2	28399	52.833626728067	7614
2	28700	53.383626728067	7755
2	28996	53.933626728067	7896
2	29903	55.833626728067	8037
2	29922	55.847466728067	8178
2	30223	56.383626728067	8319
2	30950	57.983626728067	8460
2	31857	59.883626728067	8601
2	31876	59.897466728067	8742
2	32183	60.433626728067	8883
2	32764	61.533626728067	9024
2	33345	62.633626728067	9165
2	34354	64.783626728067	9306
2	34373	64.797466728067	9447
2	35388	66.933626728067	9588
2	35407	66.947466728067	9729
2	35708	67.483626728067	9870
2	36005	68.033626728067	10011
2	36302	68.583626728067	10152
2	36321	68.597466728067	10293
2	36901	69.683626728067	10434
2	37208	70.233626728067	10575
2	37789	71.333626728067	10716
2	38370	72.433626728067	10857
2	39379	74.583626728067	10998
2	39398	74.597466728067	11139
2	39705	75.133626728067	11280
2	40554	76.783626728067	11421
2	40861	77.333626728067	11562
2	41442	78.433626728067	11703
2	42023	79.533626728067	11844
2	42930	81.433626728067	11985
2	42949	81.447466728067	12126
2	43530	82.533626728067	12267
2	44111	83.633626728067	12408
2	44412	84.183626728067	12549
2	44993	85.283626728067	12690
2	45289	85.833626728067	12831
2	45590	86.383626728067	12972
2	46171	87.483626728067	13113
2	47034	89.133626728067	13254
2	47053	89.147466728067	13395
2	47634	90.233626728067	13536
2	48209	91.333626728067	13677
2	49481	94.033626728067	13818
2	49500	94.047466728067	13959
2	49800	94.583626728067	14100
2	50386	95.683626728067	14241
2	51401	97.833626728067	14382
2	51420	97.847466728067	14523
2	52423	99.983626728067	14664
2	52442	99.997466728067	14805
3	5409	10.483429964638	141
3	5427	10.497269976305	282
3	5470	10.511109987979	423
3	5488	10.524949999662	564
3	5506	10.538790011352	705
3	5542	10.552630023051	846
3	5560	10.566470034757	987
3	5578	10.580310046472	1128
3	5596	10.594150058194	1269
3	5639	10.607990069924	1410
3	5657	10.621830081662	1551
3	6181	11.583432253194	1692
3	6494	12.133433443579	1833
3	7085	13.233435918636	1974
3	7676	14.333438522347	2115
3	8267	15.433441258466	2256
3	8859	16.533444131004	2397
3	9451	17.633447144227	2538
3	9756	18.183448704999	2679
3	10347	19.283451937806	2820
3	10938	20.383455323081	2961
3	11530	21.483458865979	3102
3	12122	22.583462571912	3243
3	12434	23.133464487776	3384
3	13025	24.233468448947	3525
3	13616	25.333472587754	3666
3	14208	26.433476910451	3807
3	14800	27.53348142352	3948
3	15392	28.633486133649	4089
3	15698	29.183488564757	4230
3	16290	30.283493583442	4371
3	16882	31.383498816722	4512
3	17474	32.483504271873	4653
3	18066	33.583509956275	4794
3	18379	34.133512886773	4935
3	18971	35.233518929028	5076
3	19563	36.33352521918	5217
3	20155	37.433531764627	5358
3	20735	38.533538572645	5499
3	21327	39.6335456503	5640
3	21633	40.183549292375	5781
3	22225	41.28355678708	5922
3	22817	42.383564567602	6063
3	23409	43.48357263953	6204
3	24001	44.583581007751	6345
3	24314	45.133585304275	6486
3	24906	46.233594124216	6627
3	25201	46.783598648256	6768
3	25514	47.333603248624	6909
3	26106	48.433612678688	7050
3	26698	49.533622414119	7191
3	27284	50.633626728067	7332
3	27585	51.183626728067	7473
3	28399	52.833626728067	7614
3	28700	53.383626728067	7755
3	28996	53.933626728067	7896
3	29903	55.833626728067	8037
3	29922	55.847466728067	8178
3	30223	56.383626728067	8319
3	30950	57.983626728067	8460
3	31857	59.883626728067	8601
3	31876	59.897466728067	8742
3	32183	60.433626728067	8883
3	32764	61.533626728067	9024
3	33345	62.633626728067	9165
3	34354	64.783626728067	9306
3	34373	64.797466728067	9447
3	35388	66.933626728067	9588
3	35407	66.947466728067	9729
3	35708	67.483626728067	9870
3	36005	68.033626728067	10011
3	36302	68.583626728067	10152
3	36321	68.597466728067	10293
3	36901	69.683626728067	10434
3	37208	70.233626728067	10575
3	37789	71.333626728067	10716
3	38370	72.433626728067	10857
3	39379	74.583626728067	10998
3	39398	74.597466728067	11139
3	39705	75.133626728067	11280
3	40554	76.783626728067	11421
3	40861	77.333626728067	11562
3	41442	78.433626728067	11703
3	42023	79.533626728067	11844
3	42930	81.433626728067	11985
3	42949	81.447466728067	12126
3	43530	82.533626728067	12267
3	44111	83.633626728067	12408
3	44412	84.183626728067	12549
3	44993	85.283626728067	12690
3	45289	85.833626728067	12831
3	45590	86.383626728067	12972
3	46171	87.483626728067	13113
3	47034	89.133626728067	13254
3	47053	89.147466728067	13395
3	47634	90.233626728067	13536
3	48209	91.333626728067	13677
3	49481	94.033626728067	13818
3	49500	94.047466728067	13959
3	49800	94.583626728067	14100
3	50386	95.683626728067	14241
3	51401	97.833626728067	14382
3	51420	97.847466728067	14523
3	52423	99.983626728067	14664
3	52442	99.997466728067	14805

