version 2
run A-0-20210215-23:22:58-9744
attr configname A
attr datetime 20210215-23:22:58
attr experiment A
attr inifile GwSimV2.ini
attr iterationvars ""
attr iterationvarsf ""
attr measurement ""
attr network NetworkTormV2
attr processid 9744
attr repetition 0
attr replication #0
attr resultdir results
attr runnumber 0
attr seedset 0
param **.mobility.traceFile "\"AllPaths/mobPaths/A.movements\""
param **.numNodes 11
param **.application.dataGenerationInterval 1s
param **.application.dataSizeInBytes 10
param **.application.ttl 999999s
param **application.nodesThatGen false
param **application.nodesGenMsg "\"\""
param **application.startMultipleMsg false
param **application.numMultipleMsg 100
param **application.hopsListSize 50
param **.application.endGeneratingMsg 149s
param **.routingLayer "\"RoutingLqeGw\""
param **.routing.maximumCacheSize 5000byte
param **.routing.maximumHopCount 25
param **.routing.useTTL false
param **.routing.waitBFsend 0.1
param **.routing.max_age 999999s
param **.routing.gateway_list "\"\""
param **.routing.actual_gateway "\"\""
param **.routing.gwCheckPeriod 5s
param **.neighboring.resetGPeriod 999s
param **.wirelessIfc.wirelessRange 40m
param **.numNodes 2
param **.application.usedRNG 1
param **.application.dataGenerationInterval 1s
param **.application.dataSizeInBytes 10
param **.application.ttl 999999s
param **application.destinationAddr "\"Wf:00:00:00:00:02\""
param **application.destinationBTAddr "\"Bt:00:00:00:00:02\""
param **application.nodesThatGen true
param **application.nodesGenMsg "\"0\""
param **application.startMultipleMsg true
param **application.numMultipleMsg 100
param **application.hopsListSize 50
param **.application.endGeneratingMsg 999999s
param **.routingLayer "\"RoutingLqeGw\""
param **.routing.maximumCacheSize 5000byte
param **.routing.maximumHopCount 25
param **.routing.useTTL false
param **.routing.waitBFsend 0.1
param **.routing.max_age 999999s
param **.routing.gateway_list "\"\""
param **.routing.actual_gateway "\"\""
param **.routing.gwCheckPeriod 5s
param **.neighboring.antiEntropyInterval 500ms
param **.neighboring.maximumRandomBackoffDuration 1s
param **.neighboring.delayPerDataMsg 0.1
param **neighboring.usedRNG 2
param **.neighboring.GWAddr "\"Wf:00:00:00:00:02\""
param **.neighboring.sendWifiFirst true
param **.neighboring.max_age 999999s
param **.neighboring.max_absent_time 1s
param **.neighboring.maxLengthGraph 15
param **.wirelessIfc.wirelessRange 40m
param **.wirelessIfc.neighbourScanInterval 50ms
param **.wirelessIfc.bandwidthBitRate 100000bps
param **.wirelessIfc.wirelessHeaderSize 32byte
param **.wirelessIfc.minSSI -90
param **.wirelessIfc.limitQueueTime 400ms
param **.wirelessIfc.my_limit_rate 0bps
param **.bluetoothIfc.wirelessRange 40m
param **.bluetoothIfc.neighbourScanInterval 100ms
param **.bluetoothIfc.bandwidthBitRate 100000bps
param **.bluetoothIfc.wirelessHeaderSize 16byte
param **.bluetoothIfc.minSSI -90
param **.mobilityType "\"BonnMotionMobility\""
param **.mobility.traceFile "\"paths/Moves2.movements\""
param **.mobility.is3D false
param **.mobility.nodeId -1

vector 0 NetworkTormV2 neighbourhoodSize:vector ETV
attr source neighbourhoodSize
vector 1 NetworkTormV2 deliveryRatio:vector ETV
attr source sum(totalDataBytesReceived)/sum(totalDataBytesReceivableByAllNodes)
vector 2 NetworkTormV2 dataBytesReceivedSum:vector ETV
attr source sum(dataBytesReceived)
vector 3 NetworkTormV2 totalBytesReceivedSum:vector ETV
attr source sum(totalBytesReceived)
0	34	0.05	3
0	35	0.05	5
0	36	0.05	3
0	37	0.05	5
0	38	0.05	8
0	39	0.05	5
0	40	0.05	3
0	41	0.05	5
0	42	0.05	3
0	43	0.05	1
0	44	0.05	1
0	134	0.1	3
0	136	0.1	5
0	138	0.1	3
0	140	0.1	5
0	142	0.1	8
0	144	0.1	5
0	146	0.1	3
0	148	0.1	5
0	150	0.1	3
0	152	0.1	1
0	154	0.1	1
0	155	0.1	3
0	156	0.1	5
0	157	0.1	3
0	158	0.1	5
0	159	0.1	8
0	160	0.1	5
0	161	0.1	3
0	162	0.1	5
0	163	0.1	3
0	164	0.1	1
0	165	0.1	1
0	287	0.15	3
0	288	0.15	5
0	289	0.15	3
0	290	0.15	5
0	291	0.15	8
0	292	0.15	5
0	293	0.15	3
0	294	0.15	5
0	295	0.15	3
0	296	0.15	1
0	297	0.15	1
0	386	0.2	3
0	387	0.2	5
0	388	0.2	3
0	389	0.2	5
0	390	0.2	8
0	391	0.2	5
0	392	0.2	3
0	393	0.2	5
0	394	0.2	3
0	395	0.2	1
0	396	0.2	1
0	397	0.2	3
0	398	0.2	5
0	399	0.2	3
0	400	0.2	5
0	401	0.2	8
0	402	0.2	5
0	403	0.2	3
0	404	0.2	5
0	405	0.2	3
0	406	0.2	1
0	407	0.2	1
0	518	0.25	3
0	519	0.25	5
0	520	0.25	3
0	521	0.25	5
0	522	0.25	8
0	523	0.25	5
0	524	0.25	3
0	525	0.25	5
0	526	0.25	3
0	527	0.25	1
0	528	0.25	1
0	617	0.3	3
0	618	0.3	5
0	619	0.3	3
0	620	0.3	5
0	621	0.3	8
0	622	0.3	5
0	623	0.3	3
0	624	0.3	5
0	625	0.3	3
0	626	0.3	1
0	627	0.3	1
0	628	0.3	3
0	629	0.3	5
0	630	0.3	3
0	631	0.3	5
0	632	0.3	8
0	633	0.3	5
0	634	0.3	3
0	635	0.3	5
0	636	0.3	3
0	637	0.3	1
0	638	0.3	1
0	749	0.35	3
0	750	0.35	5
0	751	0.35	3
0	752	0.35	5
0	753	0.35	8
0	754	0.35	5
0	755	0.35	3
0	756	0.35	5
0	757	0.35	3
0	758	0.35	1
0	759	0.35	1
0	848	0.4	3
0	849	0.4	5
0	850	0.4	3
0	851	0.4	5
0	852	0.4	8
0	853	0.4	5
0	854	0.4	3
0	855	0.4	5
0	856	0.4	3
0	857	0.4	1
0	858	0.4	1
0	859	0.4	3
0	860	0.4	5
0	861	0.4	3
0	862	0.4	5
0	863	0.4	8
0	864	0.4	5
0	865	0.4	3
0	866	0.4	5
0	867	0.4	3
0	868	0.4	1
0	869	0.4	1
0	980	0.45	3
0	981	0.45	5
0	982	0.45	3
0	983	0.45	5
0	984	0.45	8
0	985	0.45	5
0	986	0.45	3
0	987	0.45	5
0	988	0.45	3
0	989	0.45	1
0	990	0.45	1
0	1079	0.5	3
0	1080	0.5	5
0	1081	0.5	3
0	1082	0.5	5
0	1083	0.5	8
0	1084	0.5	5
0	1085	0.5	3
0	1086	0.5	5
0	1087	0.5	3
0	1088	0.5	1
0	1089	0.5	1
0	1090	0.5	3
0	1091	0.5	5
0	1092	0.5	3
0	1093	0.5	5
0	1094	0.5	8
0	1095	0.5	5
0	1096	0.5	3
0	1097	0.5	5
0	1098	0.5	3
0	1099	0.5	1
0	1100	0.5	1
0	1211	0.55	3
0	1212	0.55	5
0	1213	0.55	3
0	1214	0.55	5
0	1215	0.55	8
0	1216	0.55	5
0	1217	0.55	3
0	1218	0.55	5
0	1219	0.55	3
0	1220	0.55	1
0	1221	0.55	1
0	1310	0.6	3
0	1311	0.6	5
0	1312	0.6	3
0	1313	0.6	5
0	1314	0.6	8
0	1315	0.6	5
0	1316	0.6	3
0	1317	0.6	5
0	1318	0.6	3
0	1319	0.6	1
0	1320	0.6	1
0	1321	0.6	3
0	1322	0.6	5
0	1323	0.6	3
0	1324	0.6	5
0	1325	0.6	8
0	1326	0.6	5
0	1327	0.6	3
0	1328	0.6	5
0	1329	0.6	3
0	1330	0.6	1
0	1331	0.6	1
0	1442	0.65	3
0	1443	0.65	5
0	1444	0.65	3
0	1445	0.65	5
0	1446	0.65	8
0	1447	0.65	5
0	1448	0.65	3
0	1449	0.65	5
0	1450	0.65	3
0	1451	0.65	1
0	1452	0.65	1
0	1541	0.7	3
0	1542	0.7	5
0	1543	0.7	3
0	1544	0.7	5
0	1545	0.7	8
0	1546	0.7	5
0	1547	0.7	3
0	1548	0.7	5
0	1549	0.7	3
0	1550	0.7	1
0	1551	0.7	1
0	1552	0.7	3
0	1553	0.7	5
0	1554	0.7	3
0	1555	0.7	5
0	1556	0.7	8
0	1557	0.7	5
0	1558	0.7	3
0	1559	0.7	5
0	1560	0.7	3
0	1561	0.7	1
0	1562	0.7	1
0	1673	0.75	3
0	1674	0.75	5
0	1675	0.75	3
0	1676	0.75	5
0	1677	0.75	8
0	1678	0.75	5
0	1679	0.75	3
0	1680	0.75	5
0	1681	0.75	3
0	1682	0.75	1
0	1683	0.75	1
0	1772	0.8	3
0	1773	0.8	5
0	1774	0.8	3
0	1775	0.8	5
0	1776	0.8	8
0	1777	0.8	5
0	1778	0.8	3
0	1779	0.8	5
0	1780	0.8	3
0	1781	0.8	1
0	1782	0.8	1
0	1783	0.8	3
0	1784	0.8	5
0	1785	0.8	3
0	1786	0.8	5
0	1787	0.8	8
0	1788	0.8	5
0	1789	0.8	3
0	1790	0.8	5
0	1791	0.8	3
0	1792	0.8	1
0	1793	0.8	1
0	1904	0.85	3
0	1905	0.85	5
0	1906	0.85	3
0	1907	0.85	5
0	1908	0.85	8
0	1909	0.85	5
0	1910	0.85	3
0	1911	0.85	5
0	1912	0.85	3
0	1913	0.85	1
0	1914	0.85	1
0	2003	0.9	3
0	2004	0.9	5
0	2005	0.9	3
0	2006	0.9	5
0	2007	0.9	8
0	2008	0.9	5
0	2009	0.9	3
0	2010	0.9	5
0	2011	0.9	3
0	2012	0.9	1
0	2013	0.9	1
0	2014	0.9	3
0	2015	0.9	5
0	2016	0.9	3
0	2017	0.9	5
0	2018	0.9	8
0	2019	0.9	5
0	2020	0.9	3
0	2021	0.9	5
0	2022	0.9	3
0	2023	0.9	1
0	2024	0.9	1
0	2135	0.95	3
0	2136	0.95	5
0	2137	0.95	3
0	2138	0.95	5
0	2139	0.95	8
0	2140	0.95	5
0	2141	0.95	3
0	2142	0.95	5
0	2143	0.95	3
0	2144	0.95	1
0	2145	0.95	1
0	2234	1	3
0	2235	1	5
0	2236	1	3
0	2237	1	5
0	2238	1	8
0	2239	1	5
0	2240	1	3
0	2241	1	5
0	2242	1	3
0	2243	1	1
0	2244	1	1
0	2245	1	3
0	2246	1	5
0	2247	1	3
0	2248	1	5
0	2249	1	8
0	2250	1	5
0	2251	1	3
0	2252	1	5
0	2253	1	3
0	2254	1	1
0	2255	1	1
0	2366	1.05	3
0	2367	1.05	5
0	2368	1.05	3
0	2369	1.05	5
0	2370	1.05	8
0	2371	1.05	5
0	2372	1.05	3
0	2373	1.05	5
0	2374	1.05	3
0	2375	1.05	1
0	2376	1.05	1
0	2476	1.1	3
0	2477	1.1	5
0	2478	1.1	3
0	2479	1.1	5
0	2480	1.1	8
0	2481	1.1	5
0	2482	1.1	3
0	2483	1.1	5
0	2484	1.1	3
0	2485	1.1	1
0	2486	1.1	1
0	2487	1.1	3
0	2488	1.1	5
0	2489	1.1	3
0	2490	1.1	5
0	2491	1.1	8
0	2492	1.1	5
0	2493	1.1	3
0	2494	1.1	5
0	2495	1.1	3
0	2496	1.1	1
0	2497	1.1	1
0	3051	1.15	3
0	3052	1.15	5
0	3053	1.15	3
0	3054	1.15	5
0	3055	1.15	8
0	3056	1.15	5
0	3057	1.15	3
0	3058	1.15	5
0	3059	1.15	3
0	3060	1.15	1
0	3061	1.15	1
0	3444	1.2	3
0	3445	1.2	5
0	3446	1.2	3
0	3447	1.2	5
0	3448	1.2	8
0	3449	1.2	5
0	3450	1.2	3
0	3451	1.2	5
0	3452	1.2	3
0	3453	1.2	1
0	3454	1.2	1
0	3455	1.2	3
0	3456	1.2	5
0	3457	1.2	3
0	3458	1.2	5
0	3459	1.2	8
0	3460	1.2	5
0	3461	1.2	3
0	3462	1.2	5
0	3463	1.2	3
0	3464	1.2	1
0	3465	1.2	1
0	3666	1.25	3
0	3667	1.25	5
0	3668	1.25	3
0	3669	1.25	5
0	3670	1.25	8
0	3671	1.25	5
0	3672	1.25	3
0	3673	1.25	5
0	3674	1.25	3
0	3675	1.25	1
0	3676	1.25	1
0	3777	1.3	3
0	3778	1.3	5
0	3779	1.3	3
0	3780	1.3	5
0	3781	1.3	8
0	3782	1.3	5
0	3783	1.3	3
0	3784	1.3	5
0	3785	1.3	3
0	3786	1.3	1
0	3787	1.3	1
0	3788	1.3	3
0	3789	1.3	5
0	3790	1.3	3
0	3791	1.3	5
0	3792	1.3	8
0	3793	1.3	5
0	3794	1.3	3
0	3795	1.3	5
0	3796	1.3	3
0	3797	1.3	1
0	3798	1.3	1
0	3909	1.35	3
0	3910	1.35	5
0	3911	1.35	3
0	3912	1.35	5
0	3913	1.35	8
0	3914	1.35	5
0	3915	1.35	3
0	3916	1.35	5
0	3917	1.35	3
0	3918	1.35	1
0	3919	1.35	1
0	4008	1.4	3
0	4009	1.4	5
0	4010	1.4	3
0	4011	1.4	5
0	4012	1.4	8
0	4013	1.4	5
0	4014	1.4	3
0	4015	1.4	5
0	4016	1.4	3
0	4017	1.4	1
0	4018	1.4	1
0	4019	1.4	3
0	4020	1.4	5
0	4021	1.4	3
0	4022	1.4	5
0	4023	1.4	8
0	4024	1.4	5
0	4025	1.4	3
0	4026	1.4	5
0	4027	1.4	3
0	4028	1.4	1
0	4029	1.4	1
0	4140	1.45	3
0	4141	1.45	5
0	4142	1.45	3
0	4143	1.45	5
0	4144	1.45	8
0	4145	1.45	5
0	4146	1.45	3
0	4147	1.45	5
0	4148	1.45	3
0	4149	1.45	1
0	4150	1.45	1
0	4239	1.5	3
0	4240	1.5	5
0	4241	1.5	3
0	4242	1.5	5
0	4243	1.5	8
0	4244	1.5	5
0	4245	1.5	3
0	4246	1.5	5
0	4247	1.5	3
0	4248	1.5	1
0	4249	1.5	1
0	4250	1.5	3
0	4251	1.5	5
0	4252	1.5	3
0	4253	1.5	5
0	4254	1.5	8
0	4255	1.5	5
0	4256	1.5	3
0	4257	1.5	5
0	4258	1.5	3
0	4259	1.5	1
0	4260	1.5	1
0	4371	1.55	3
0	4372	1.55	5
0	4373	1.55	3
0	4374	1.55	5
0	4375	1.55	8
0	4376	1.55	5
0	4377	1.55	3
0	4378	1.55	5
0	4379	1.55	3
0	4380	1.55	1
0	4381	1.55	1
0	4470	1.6	3
0	4471	1.6	5
0	4472	1.6	3
0	4473	1.6	5
0	4474	1.6	8
0	4475	1.6	5
0	4476	1.6	3
0	4477	1.6	5
0	4478	1.6	3
0	4479	1.6	1
0	4480	1.6	1
0	4481	1.6	3
0	4482	1.6	5
0	4483	1.6	3
0	4484	1.6	5
0	4485	1.6	8
0	4486	1.6	5
0	4487	1.6	3
0	4488	1.6	5
0	4489	1.6	3
0	4490	1.6	1
0	4491	1.6	1
0	4602	1.65	3
0	4603	1.65	5
0	4604	1.65	3
0	4605	1.65	5
0	4606	1.65	8
0	4607	1.65	5
0	4608	1.65	3
0	4609	1.65	5
0	4610	1.65	3
0	4611	1.65	1
0	4612	1.65	1
0	5127	1.7	3
0	5128	1.7	5
0	5129	1.7	3
0	5130	1.7	5
0	5131	1.7	8
0	5132	1.7	5
0	5133	1.7	3
0	5134	1.7	5
0	5135	1.7	3
0	5136	1.7	1
0	5137	1.7	1
0	5138	1.7	3
0	5139	1.7	5
0	5140	1.7	3
0	5141	1.7	5
0	5142	1.7	8
0	5143	1.7	5
0	5144	1.7	3
0	5145	1.7	5
0	5146	1.7	3
0	5147	1.7	1
0	5148	1.7	1
0	5472	1.75	3
0	5473	1.75	5
0	5474	1.75	3
0	5475	1.75	5
0	5476	1.75	8
0	5477	1.75	5
0	5478	1.75	3
0	5479	1.75	5
0	5480	1.75	3
0	5481	1.75	1
0	5482	1.75	1
0	5643	1.8	3
0	5644	1.8	5
0	5645	1.8	3
0	5646	1.8	5
0	5647	1.8	8
0	5648	1.8	5
0	5649	1.8	3
0	5650	1.8	5
0	5651	1.8	3
0	5652	1.8	1
0	5653	1.8	1
0	5654	1.8	3
0	5655	1.8	5
0	5656	1.8	3
0	5657	1.8	5
0	5658	1.8	8
0	5659	1.8	5
0	5660	1.8	3
0	5661	1.8	5
0	5662	1.8	3
0	5663	1.8	1
0	5664	1.8	1
0	5876	1.85	3
0	5877	1.85	5
0	5878	1.85	3
0	5879	1.85	5
0	5880	1.85	8
0	5881	1.85	5
0	5882	1.85	3
0	5883	1.85	5
0	5884	1.85	3
0	5885	1.85	1
0	5886	1.85	1
0	5980	1.9	3
0	5981	1.9	5
0	5982	1.9	3
0	5983	1.9	5
0	5984	1.9	8
0	5985	1.9	5
0	5986	1.9	3
0	5987	1.9	5
0	5988	1.9	3
0	5989	1.9	1
0	5990	1.9	1
0	5991	1.9	3
0	5992	1.9	5
0	5993	1.9	3
0	5994	1.9	5
0	5995	1.9	8
0	5996	1.9	5
0	5997	1.9	3
0	5998	1.9	5
0	5999	1.9	3
0	6000	1.9	1
0	6001	1.9	1
0	6112	1.95	3
0	6113	1.95	5
0	6114	1.95	3
0	6115	1.95	5
0	6116	1.95	8
0	6117	1.95	5
0	6118	1.95	3
0	6119	1.95	5
0	6120	1.95	3
0	6121	1.95	1
0	6122	1.95	1
0	6211	2	3
0	6212	2	5
0	6213	2	3
0	6214	2	5
0	6215	2	8
0	6216	2	5
0	6217	2	3
0	6218	2	5
0	6219	2	3
0	6220	2	1
0	6221	2	1
0	6222	2	3
0	6223	2	5
0	6224	2	3
0	6225	2	5
0	6226	2	8
0	6227	2	5
0	6228	2	3
0	6229	2	5
0	6230	2	3
0	6231	2	1
0	6232	2	1
0	6343	2.05	3
0	6344	2.05	5
0	6345	2.05	3
0	6346	2.05	5
0	6347	2.05	8
0	6348	2.05	5
0	6349	2.05	3
0	6350	2.05	5
0	6351	2.05	3
0	6352	2.05	1
0	6353	2.05	1
0	6453	2.1	3
0	6454	2.1	5
0	6455	2.1	3
0	6456	2.1	5
0	6457	2.1	8
0	6458	2.1	5
0	6459	2.1	3
0	6460	2.1	5
0	6461	2.1	3
0	6462	2.1	1
0	6463	2.1	1
0	6464	2.1	3
0	6465	2.1	5
0	6466	2.1	3
0	6467	2.1	5
0	6468	2.1	8
0	6469	2.1	5
0	6470	2.1	3
0	6471	2.1	5
0	6472	2.1	3
0	6473	2.1	1
0	6474	2.1	1
0	6596	2.15	3
0	6597	2.15	5
0	6598	2.15	3
0	6599	2.15	5
0	6600	2.15	8
0	6601	2.15	5
0	6602	2.15	3
0	6603	2.15	5
0	6604	2.15	3
0	6605	2.15	1
0	6606	2.15	1
0	6695	2.2	3
0	6696	2.2	5
0	6697	2.2	3
0	6698	2.2	5
0	6699	2.2	8
0	6700	2.2	5
0	6701	2.2	3
0	6702	2.2	5
0	6703	2.2	3
0	6704	2.2	1
0	6705	2.2	1
0	6706	2.2	3
0	6707	2.2	5
0	6708	2.2	3
0	6709	2.2	5
0	6710	2.2	8
0	6711	2.2	5
0	6712	2.2	3
0	6713	2.2	5
0	6714	2.2	3
0	6715	2.2	1
0	6716	2.2	1
0	7243	2.25	3
0	7244	2.25	5
0	7245	2.25	3
0	7246	2.25	5
0	7247	2.25	8
0	7248	2.25	5
0	7249	2.25	3
0	7250	2.25	5
0	7251	2.25	3
0	7252	2.25	1
0	7253	2.25	1
0	7513	2.3	3
0	7514	2.3	5
0	7515	2.3	3
0	7516	2.3	5
0	7517	2.3	8
0	7518	2.3	5
0	7519	2.3	3
0	7520	2.3	5
0	7521	2.3	3
0	7522	2.3	1
0	7523	2.3	1
0	7524	2.3	3
0	7525	2.3	5
0	7526	2.3	3
0	7527	2.3	5
0	7528	2.3	8
0	7529	2.3	5
0	7530	2.3	3
0	7531	2.3	5
0	7532	2.3	3
0	7533	2.3	1
0	7534	2.3	1
0	7699	2.35	3
0	7700	2.35	5
0	7701	2.35	3
0	7702	2.35	5
0	7703	2.35	8
0	7704	2.35	5
0	7705	2.35	3
0	7706	2.35	5
0	7707	2.35	3
0	7708	2.35	1
0	7709	2.35	1
0	7890	2.4	3
0	7891	2.4	5
0	7892	2.4	3
0	7893	2.4	5
0	7894	2.4	8
0	7895	2.4	5
0	7896	2.4	3
0	7897	2.4	5
0	7898	2.4	3
0	7899	2.4	1
0	7900	2.4	1
0	7901	2.4	3
0	7902	2.4	5
0	7903	2.4	3
0	7904	2.4	5
0	7905	2.4	8
0	7906	2.4	5
0	7907	2.4	3
0	7908	2.4	5
0	7909	2.4	3
0	7910	2.4	1
0	7911	2.4	1
0	8022	2.45	3
0	8023	2.45	5
0	8024	2.45	3
0	8025	2.45	5
0	8026	2.45	8
0	8027	2.45	5
0	8028	2.45	3
0	8029	2.45	5
0	8030	2.45	3
0	8031	2.45	1
0	8032	2.45	1
0	8121	2.5	3
0	8122	2.5	5
0	8123	2.5	3
0	8124	2.5	5
0	8125	2.5	8
0	8126	2.5	5
0	8127	2.5	3
0	8128	2.5	5
0	8129	2.5	3
0	8130	2.5	1
0	8131	2.5	1
0	8132	2.5	3
0	8133	2.5	5
0	8134	2.5	3
0	8135	2.5	5
0	8136	2.5	8
0	8137	2.5	5
0	8138	2.5	3
0	8139	2.5	5
0	8140	2.5	3
0	8141	2.5	1
0	8142	2.5	1
0	8253	2.55	3
0	8254	2.55	5
0	8255	2.55	3
0	8256	2.55	5
0	8257	2.55	8
0	8258	2.55	5
0	8259	2.55	3
0	8260	2.55	5
0	8261	2.55	3
0	8262	2.55	1
0	8263	2.55	1
0	8352	2.6	3
0	8353	2.6	5
0	8354	2.6	3
0	8355	2.6	5
0	8356	2.6	8
0	8357	2.6	5
0	8358	2.6	3
0	8359	2.6	5
0	8360	2.6	3
0	8361	2.6	1
0	8362	2.6	1
0	8363	2.6	3
0	8364	2.6	5
0	8365	2.6	3
0	8366	2.6	5
0	8367	2.6	8
0	8368	2.6	5
0	8369	2.6	3
0	8370	2.6	5
0	8371	2.6	3
0	8372	2.6	1
0	8373	2.6	1
0	8484	2.65	3
0	8485	2.65	5
0	8486	2.65	3
0	8487	2.65	5
0	8488	2.65	8
0	8489	2.65	5
0	8490	2.65	3
0	8491	2.65	5
0	8492	2.65	3
0	8493	2.65	1
0	8494	2.65	1
0	8583	2.7	3
0	8584	2.7	5
0	8585	2.7	3
0	8586	2.7	5
0	8587	2.7	8
0	8588	2.7	5
0	8589	2.7	3
0	8590	2.7	5
0	8591	2.7	3
0	8592	2.7	1
0	8593	2.7	1
0	8594	2.7	3
0	8595	2.7	5
0	8596	2.7	3
0	8597	2.7	5
0	8598	2.7	8
0	8599	2.7	5
0	8600	2.7	3
0	8601	2.7	5
0	8602	2.7	3
0	8603	2.7	1
0	8604	2.7	1
0	8732	2.75	3
0	8733	2.75	5
0	8734	2.75	3
0	8735	2.75	5
0	8736	2.75	8
0	8737	2.75	5
0	8738	2.75	3
0	8739	2.75	5
0	8740	2.75	3
0	8741	2.75	1
0	8742	2.75	1
0	9256	2.8	3
0	9257	2.8	5
0	9258	2.8	3
0	9259	2.8	5
0	9260	2.8	8
0	9261	2.8	5
0	9262	2.8	3
0	9263	2.8	5
0	9264	2.8	3
0	9265	2.8	1
0	9266	2.8	1
0	9267	2.8	3
0	9268	2.8	5
0	9269	2.8	3
0	9270	2.8	5
0	9271	2.8	8
0	9272	2.8	5
0	9273	2.8	3
0	9274	2.8	5
0	9275	2.8	3
0	9276	2.8	1
0	9277	2.8	1
0	9523	2.85	3
0	9524	2.85	5
0	9525	2.85	3
0	9526	2.85	5
0	9527	2.85	8
0	9528	2.85	5
0	9529	2.85	3
0	9530	2.85	5
0	9531	2.85	3
0	9532	2.85	1
0	9533	2.85	1
0	9663	2.9	3
0	9664	2.9	5
0	9665	2.9	3
0	9666	2.9	5
0	9667	2.9	8
0	9668	2.9	5
0	9669	2.9	3
0	9670	2.9	5
0	9671	2.9	3
0	9672	2.9	1
0	9673	2.9	1
0	9674	2.9	3
0	9675	2.9	5
0	9676	2.9	3
0	9677	2.9	5
0	9678	2.9	8
0	9679	2.9	5
0	9680	2.9	3
0	9681	2.9	5
0	9682	2.9	3
0	9683	2.9	1
0	9684	2.9	1
0	9864	2.95	3
0	9865	2.95	5
0	9866	2.95	3
0	9867	2.95	5
0	9868	2.95	8
0	9869	2.95	5
0	9870	2.95	3
0	9871	2.95	5
0	9872	2.95	3
0	9873	2.95	1
0	9874	2.95	1
0	9963	3	3
0	9964	3	5
0	9965	3	3
0	9966	3	5
0	9967	3	8
0	9968	3	5
0	9969	3	3
0	9970	3	5
0	9971	3	3
0	9972	3	1
0	9973	3	1
0	9974	3	3
0	9975	3	5
0	9976	3	3
0	9977	3	5
0	9978	3	8
0	9979	3	5
0	9980	3	3
0	9981	3	5
0	9982	3	3
0	9983	3	1
0	9984	3	1
0	10095	3.05	3
0	10096	3.05	5
0	10097	3.05	3
0	10098	3.05	5
0	10099	3.05	8
0	10100	3.05	5
0	10101	3.05	3
0	10102	3.05	5
0	10103	3.05	3
0	10104	3.05	1
0	10105	3.05	1
0	10205	3.1	3
0	10206	3.1	5
0	10207	3.1	3
0	10208	3.1	5
0	10209	3.1	8
0	10210	3.1	5
0	10211	3.1	3
0	10212	3.1	5
0	10213	3.1	3
0	10214	3.1	1
0	10215	3.1	1
0	10216	3.1	3
0	10217	3.1	5
0	10218	3.1	3
0	10219	3.1	5
0	10220	3.1	8
0	10221	3.1	5
0	10222	3.1	3
0	10223	3.1	5
0	10224	3.1	3
0	10225	3.1	1
0	10226	3.1	1
0	10348	3.15	3
0	10349	3.15	5
0	10350	3.15	3
0	10351	3.15	5
0	10352	3.15	8
0	10353	3.15	5
0	10354	3.15	3
0	10355	3.15	5
0	10356	3.15	3
0	10357	3.15	1
0	10358	3.15	1
0	10447	3.2	3
0	10448	3.2	5
0	10449	3.2	3
0	10450	3.2	5
0	10451	3.2	8
0	10452	3.2	5
0	10453	3.2	3
0	10454	3.2	5
0	10455	3.2	3
0	10456	3.2	1
0	10457	3.2	1
0	10458	3.2	3
0	10459	3.2	5
0	10460	3.2	3
0	10461	3.2	5
0	10462	3.2	8
0	10463	3.2	5
0	10464	3.2	3
0	10465	3.2	5
0	10466	3.2	3
0	10467	3.2	1
0	10468	3.2	1
0	10579	3.25	3
0	10580	3.25	5
0	10581	3.25	3
0	10582	3.25	5
0	10583	3.25	8
0	10584	3.25	5
0	10585	3.25	3
0	10586	3.25	5
0	10587	3.25	3
0	10588	3.25	1
0	10589	3.25	1
0	10752	3.3	3
0	10753	3.3	5
0	10754	3.3	3
0	10755	3.3	5
0	10756	3.3	8
0	10757	3.3	5
0	10758	3.3	3
0	10759	3.3	5
0	10760	3.3	3
0	10761	3.3	1
0	10762	3.3	1
0	10763	3.3	3
0	10764	3.3	5
0	10765	3.3	3
0	10766	3.3	5
0	10767	3.3	8
0	10768	3.3	5
0	10769	3.3	3
0	10770	3.3	5
0	10771	3.3	3
0	10772	3.3	1
0	10773	3.3	1
0	11300	3.35	3
0	11301	3.35	5
0	11302	3.35	3
0	11303	3.35	5
0	11304	3.35	8
0	11305	3.35	5
0	11306	3.35	3
0	11307	3.35	5
0	11308	3.35	3
0	11309	3.35	1
0	11310	3.35	1
0	11516	3.4	3
0	11517	3.4	5
0	11518	3.4	3
0	11519	3.4	5
0	11520	3.4	8
0	11521	3.4	5
0	11522	3.4	3
0	11523	3.4	5
0	11524	3.4	3
0	11525	3.4	1
0	11526	3.4	1
0	11527	3.4	3
0	11528	3.4	5
0	11529	3.4	3
0	11530	3.4	5
0	11531	3.4	8
0	11532	3.4	5
0	11533	3.4	3
0	11534	3.4	5
0	11535	3.4	3
0	11536	3.4	1
0	11537	3.4	1
0	11722	3.45	3
0	11723	3.45	5
0	11724	3.45	3
0	11725	3.45	5
0	11726	3.45	8
0	11727	3.45	5
0	11728	3.45	3
0	11729	3.45	5
0	11730	3.45	3
0	11731	3.45	1
0	11732	3.45	1
0	11890	3.5	3
0	11891	3.5	5
0	11892	3.5	3
0	11893	3.5	5
0	11894	3.5	8
0	11895	3.5	5
0	11896	3.5	3
0	11897	3.5	5
0	11898	3.5	3
0	11899	3.5	1
0	11900	3.5	1
0	11901	3.5	3
0	11902	3.5	5
0	11903	3.5	3
0	11904	3.5	5
0	11905	3.5	8
0	11906	3.5	5
0	11907	3.5	3
0	11908	3.5	5
0	11909	3.5	3
0	11910	3.5	1
0	11911	3.5	1
0	12045	3.55	3
0	12046	3.55	5
0	12047	3.55	3
0	12048	3.55	5
0	12049	3.55	8
0	12050	3.55	5
0	12051	3.55	3
0	12052	3.55	5
0	12053	3.55	3
0	12054	3.55	1
0	12055	3.55	1
0	12149	3.6	3
0	12150	3.6	5
0	12151	3.6	3
0	12152	3.6	5
0	12153	3.6	8
0	12154	3.6	5
0	12155	3.6	3
0	12156	3.6	5
0	12157	3.6	3
0	12158	3.6	1
0	12159	3.6	1
0	12160	3.6	3
0	12161	3.6	5
0	12162	3.6	3
0	12163	3.6	5
0	12164	3.6	8
0	12165	3.6	5
0	12166	3.6	3
0	12167	3.6	5
0	12168	3.6	3
0	12169	3.6	1
0	12170	3.6	1
0	12281	3.65	3
0	12282	3.65	5
0	12283	3.65	3
0	12284	3.65	5
0	12285	3.65	8
0	12286	3.65	5
0	12287	3.65	3
0	12288	3.65	5
0	12289	3.65	3
0	12290	3.65	1
0	12291	3.65	1
0	12380	3.7	3
0	12381	3.7	5
0	12382	3.7	3
0	12383	3.7	5
0	12384	3.7	8
0	12385	3.7	5
0	12386	3.7	3
0	12387	3.7	5
0	12388	3.7	3
0	12389	3.7	1
0	12390	3.7	1
0	12391	3.7	3
0	12392	3.7	5
0	12393	3.7	3
0	12394	3.7	5
0	12395	3.7	8
0	12396	3.7	5
0	12397	3.7	3
0	12398	3.7	5
0	12399	3.7	3
0	12400	3.7	1
0	12401	3.7	1
0	12512	3.75	3
0	12513	3.75	5
0	12514	3.75	3
0	12515	3.75	5
0	12516	3.75	8
0	12517	3.75	5
0	12518	3.75	3
0	12519	3.75	5
0	12520	3.75	3
0	12521	3.75	1
0	12522	3.75	1
0	12611	3.8	3
0	12612	3.8	5
0	12613	3.8	3
0	12614	3.8	5
0	12615	3.8	8
0	12616	3.8	5
0	12617	3.8	3
0	12618	3.8	5
0	12619	3.8	3
0	12620	3.8	1
0	12621	3.8	1
0	12622	3.8	3
0	12623	3.8	5
0	12624	3.8	3
0	12625	3.8	5
0	12626	3.8	8
0	12627	3.8	5
0	12628	3.8	3
0	12629	3.8	5
0	12630	3.8	3
0	12631	3.8	1
0	12632	3.8	1
0	12811	3.85	3
0	12812	3.85	5
0	12813	3.85	3
0	12814	3.85	5
0	12815	3.85	8
0	12816	3.85	5
0	12817	3.85	3
0	12818	3.85	5
0	12819	3.85	3
0	12820	3.85	1
0	12821	3.85	1
0	13331	3.9	3
0	13332	3.9	5
0	13333	3.9	3
0	13334	3.9	5
0	13335	3.9	8
0	13336	3.9	5
0	13337	3.9	3
0	13338	3.9	5
0	13339	3.9	3
0	13340	3.9	1
0	13341	3.9	1
0	13342	3.9	3
0	13343	3.9	5
0	13344	3.9	3
0	13345	3.9	5
0	13346	3.9	8
0	13347	3.9	5
0	13348	3.9	3
0	13349	3.9	5
0	13350	3.9	3
0	13351	3.9	1
0	13352	3.9	1
0	13547	3.95	3
0	13548	3.95	5
0	13549	3.95	3
0	13550	3.95	5
0	13551	3.95	8
0	13552	3.95	5
0	13553	3.95	3
0	13554	3.95	5
0	13555	3.95	3
0	13556	3.95	1
0	13557	3.95	1
0	13738	4	3
0	13739	4	5
0	13740	4	3
0	13741	4	5
0	13742	4	8
0	13743	4	5
0	13744	4	3
0	13745	4	5
0	13746	4	3
0	13747	4	1
0	13748	4	1
0	13749	4	3
0	13750	4	5
0	13751	4	3
0	13752	4	5
0	13753	4	8
0	13754	4	5
0	13755	4	3
0	13756	4	5
0	13757	4	3
0	13758	4	1
0	13759	4	1
0	13944	4.05	3
0	13945	4.05	5
0	13946	4.05	3
0	13947	4.05	5
0	13948	4.05	8
0	13949	4.05	5
0	13950	4.05	3
0	13951	4.05	5
0	13952	4.05	3
0	13953	4.05	1
0	13954	4.05	1
0	14077	4.1	3
0	14078	4.1	5
0	14079	4.1	3
0	14080	4.1	5
0	14081	4.1	8
0	14082	4.1	5
0	14083	4.1	3
0	14084	4.1	5
0	14085	4.1	3
0	14086	4.1	1
0	14087	4.1	1
0	14088	4.1	3
0	14089	4.1	5
0	14090	4.1	3
0	14091	4.1	5
0	14092	4.1	8
0	14093	4.1	5
0	14094	4.1	3
0	14095	4.1	5
0	14096	4.1	3
0	14097	4.1	1
0	14098	4.1	1
0	14243	4.15	3
0	14244	4.15	5
0	14245	4.15	3
0	14246	4.15	5
0	14247	4.15	8
0	14248	4.15	5
0	14249	4.15	3
0	14250	4.15	5
0	14251	4.15	3
0	14252	4.15	1
0	14253	4.15	1
0	14342	4.2	3
0	14343	4.2	5
0	14344	4.2	3
0	14345	4.2	5
0	14346	4.2	8
0	14347	4.2	5
0	14348	4.2	3
0	14349	4.2	5
0	14350	4.2	3
0	14351	4.2	1
0	14352	4.2	1
0	14353	4.2	3
0	14354	4.2	5
0	14355	4.2	3
0	14356	4.2	5
0	14357	4.2	8
0	14358	4.2	5
0	14359	4.2	3
0	14360	4.2	5
0	14361	4.2	3
0	14362	4.2	1
0	14363	4.2	1
0	14474	4.25	3
0	14475	4.25	5
0	14476	4.25	3
0	14477	4.25	5
0	14478	4.25	8
0	14479	4.25	5
0	14480	4.25	3
0	14481	4.25	5
0	14482	4.25	3
0	14483	4.25	1
0	14484	4.25	1
0	14573	4.3	3
0	14574	4.3	5
0	14575	4.3	3
0	14576	4.3	5
0	14577	4.3	8
0	14578	4.3	5
0	14579	4.3	3
0	14580	4.3	5
0	14581	4.3	3
0	14582	4.3	1
0	14583	4.3	1
0	14584	4.3	3
0	14585	4.3	5
0	14586	4.3	3
0	14587	4.3	5
0	14588	4.3	8
0	14589	4.3	5
0	14590	4.3	3
0	14591	4.3	5
0	14592	4.3	3
0	14593	4.3	1
0	14594	4.3	1
0	14705	4.35	3
0	14706	4.35	5
0	14707	4.35	3
0	14708	4.35	5
0	14709	4.35	8
0	14710	4.35	5
0	14711	4.35	3
0	14712	4.35	5
0	14713	4.35	3
0	14714	4.35	1
0	14715	4.35	1
0	14849	4.4	3
0	14850	4.4	5
0	14851	4.4	3
0	14852	4.4	5
0	14853	4.4	8
0	14854	4.4	5
0	14855	4.4	3
0	14856	4.4	5
0	14857	4.4	3
0	14858	4.4	1
0	14859	4.4	1
0	14860	4.4	3
0	14861	4.4	5
0	14862	4.4	3
0	14863	4.4	5
0	14864	4.4	8
0	14865	4.4	5
0	14866	4.4	3
0	14867	4.4	5
0	14868	4.4	3
0	14869	4.4	1
0	14870	4.4	1
0	15404	4.45	3
0	15405	4.45	5
0	15406	4.45	3
0	15407	4.45	5
0	15408	4.45	8
0	15409	4.45	5
0	15410	4.45	3
0	15411	4.45	5
0	15412	4.45	3
0	15413	4.45	1
0	15414	4.45	1
0	15579	4.5	3
0	15580	4.5	5
0	15581	4.5	3
0	15582	4.5	5
0	15583	4.5	8
0	15584	4.5	5
0	15585	4.5	3
0	15586	4.5	5
0	15587	4.5	3
0	15588	4.5	1
0	15589	4.5	1
0	15590	4.5	3
0	15591	4.5	5
0	15592	4.5	3
0	15593	4.5	5
0	15594	4.5	8
0	15595	4.5	5
0	15596	4.5	3
0	15597	4.5	5
0	15598	4.5	3
0	15599	4.5	1
0	15600	4.5	1
0	15757	4.55	3
0	15758	4.55	5
0	15759	4.55	3
0	15760	4.55	5
0	15761	4.55	8
0	15762	4.55	5
0	15763	4.55	3
0	15764	4.55	5
0	15765	4.55	3
0	15766	4.55	1
0	15767	4.55	1
0	15907	4.6	3
0	15908	4.6	5
0	15909	4.6	3
0	15910	4.6	5
0	15911	4.6	8
0	15912	4.6	5
0	15913	4.6	3
0	15914	4.6	5
0	15915	4.6	3
0	15916	4.6	1
0	15917	4.6	1
0	15918	4.6	3
0	15919	4.6	5
0	15920	4.6	3
0	15921	4.6	5
0	15922	4.6	8
0	15923	4.6	5
0	15924	4.6	3
0	15925	4.6	5
0	15926	4.6	3
0	15927	4.6	1
0	15928	4.6	1
0	16085	4.65	3
0	16086	4.65	5
0	16087	4.65	3
0	16088	4.65	5
0	16089	4.65	8
0	16090	4.65	5
0	16091	4.65	3
0	16092	4.65	5
0	16093	4.65	3
0	16094	4.65	1
0	16095	4.65	1
0	16207	4.7	3
0	16208	4.7	5
0	16209	4.7	3
0	16210	4.7	5
0	16211	4.7	8
0	16212	4.7	5
0	16213	4.7	3
0	16214	4.7	5
0	16215	4.7	3
0	16216	4.7	1
0	16217	4.7	1
0	16218	4.7	3
0	16219	4.7	5
0	16220	4.7	3
0	16221	4.7	5
0	16222	4.7	8
0	16223	4.7	5
0	16224	4.7	3
0	16225	4.7	5
0	16226	4.7	3
0	16227	4.7	1
0	16228	4.7	1
0	16339	4.75	3
0	16340	4.75	5
0	16341	4.75	3
0	16342	4.75	5
0	16343	4.75	8
0	16344	4.75	5
0	16345	4.75	3
0	16346	4.75	5
0	16347	4.75	3
0	16348	4.75	1
0	16349	4.75	1
0	16438	4.8	3
0	16439	4.8	5
0	16440	4.8	3
0	16441	4.8	5
0	16442	4.8	8
0	16443	4.8	5
0	16444	4.8	3
0	16445	4.8	5
0	16446	4.8	3
0	16447	4.8	1
0	16448	4.8	1
0	16449	4.8	3
0	16450	4.8	5
0	16451	4.8	3
0	16452	4.8	5
0	16453	4.8	8
0	16454	4.8	5
0	16455	4.8	3
0	16456	4.8	5
0	16457	4.8	3
0	16458	4.8	1
0	16459	4.8	1
0	16570	4.85	3
0	16571	4.85	5
0	16572	4.85	3
0	16573	4.85	5
0	16574	4.85	8
0	16575	4.85	5
0	16576	4.85	3
0	16577	4.85	5
0	16578	4.85	3
0	16579	4.85	1
0	16580	4.85	1
0	16669	4.9	3
0	16670	4.9	5
0	16671	4.9	3
0	16672	4.9	5
0	16673	4.9	8
0	16674	4.9	5
0	16675	4.9	3
0	16676	4.9	5
0	16677	4.9	3
0	16678	4.9	1
0	16679	4.9	1
0	16680	4.9	3
0	16681	4.9	5
0	16682	4.9	3
0	16683	4.9	5
0	16684	4.9	8
0	16685	4.9	5
0	16686	4.9	3
0	16687	4.9	5
0	16688	4.9	3
0	16689	4.9	1
0	16690	4.9	1
0	16811	4.95	3
0	16812	4.95	5
0	16813	4.95	3
0	16814	4.95	5
0	16815	4.95	8
0	16816	4.95	5
0	16817	4.95	3
0	16818	4.95	5
0	16819	4.95	3
0	16820	4.95	1
0	16821	4.95	1
0	17314	5	3
0	17315	5	5
0	17316	5	3
0	17317	5	5
0	17318	5	8
0	17319	5	5
0	17320	5	3
0	17321	5	5
0	17322	5	3
0	17323	5	1
0	17324	5	1
0	17325	5	3
0	17326	5	5
0	17327	5	3
0	17328	5	5
0	17329	5	8
0	17330	5	5
0	17331	5	3
0	17332	5	5
0	17333	5	3
0	17334	5	1
0	17335	5	1
0	17534	5.05	3
0	17535	5.05	5
0	17536	5.05	3
0	17537	5.05	5
0	17538	5.05	8
0	17539	5.05	5
0	17540	5.05	3
0	17541	5.05	5
0	17542	5.05	3
0	17543	5.05	1
0	17544	5.05	1
0	17644	5.1	3
0	17645	5.1	5
0	17646	5.1	3
0	17647	5.1	5
0	17648	5.1	8
0	17649	5.1	5
0	17650	5.1	3
0	17651	5.1	5
0	17652	5.1	3
0	17653	5.1	1
0	17654	5.1	1
0	17655	5.1	3
0	17656	5.1	5
0	17657	5.1	3
0	17658	5.1	5
0	17659	5.1	8
0	17660	5.1	5
0	17661	5.1	3
0	17662	5.1	5
0	17663	5.1	3
0	17664	5.1	1
0	17665	5.1	1
0	17867	5.15	3
0	17868	5.15	5
0	17869	5.15	3
0	17870	5.15	5
0	17871	5.15	8
0	17872	5.15	5
0	17873	5.15	3
0	17874	5.15	5
0	17875	5.15	3
0	17876	5.15	1
0	17877	5.15	1
0	17994	5.2	3
0	17995	5.2	5
0	17996	5.2	3
0	17997	5.2	5
0	17998	5.2	8
0	17999	5.2	5
0	18000	5.2	3
0	18001	5.2	5
0	18002	5.2	3
0	18003	5.2	1
0	18004	5.2	1
0	18005	5.2	3
0	18006	5.2	5
0	18007	5.2	3
0	18008	5.2	5
0	18009	5.2	8
0	18010	5.2	5
0	18011	5.2	3
0	18012	5.2	5
0	18013	5.2	3
0	18014	5.2	1
0	18015	5.2	1
0	18149	5.25	3
0	18150	5.25	5
0	18151	5.25	3
0	18152	5.25	5
0	18153	5.25	8
0	18154	5.25	5
0	18155	5.25	3
0	18156	5.25	5
0	18157	5.25	3
0	18158	5.25	1
0	18159	5.25	1
0	18248	5.3	3
0	18249	5.3	5
0	18250	5.3	3
0	18251	5.3	5
0	18252	5.3	8
0	18253	5.3	5
0	18254	5.3	3
0	18255	5.3	5
0	18256	5.3	3
0	18257	5.3	1
0	18258	5.3	1
0	18259	5.3	3
0	18260	5.3	5
0	18261	5.3	3
0	18262	5.3	5
0	18263	5.3	8
0	18264	5.3	5
0	18265	5.3	3
0	18266	5.3	5
0	18267	5.3	3
0	18268	5.3	1
0	18269	5.3	1
0	18380	5.35	3
0	18381	5.35	5
0	18382	5.35	3
0	18383	5.35	5
0	18384	5.35	8
0	18385	5.35	5
0	18386	5.35	3
0	18387	5.35	5
0	18388	5.35	3
0	18389	5.35	1
0	18390	5.35	1
0	18479	5.4	3
0	18480	5.4	5
0	18481	5.4	3
0	18482	5.4	5
0	18483	5.4	8
0	18484	5.4	5
0	18485	5.4	3
0	18486	5.4	5
0	18487	5.4	3
0	18488	5.4	1
0	18489	5.4	1
0	18490	5.4	3
0	18491	5.4	5
0	18492	5.4	3
0	18493	5.4	5
0	18494	5.4	8
0	18495	5.4	5
0	18496	5.4	3
0	18497	5.4	5
0	18498	5.4	3
0	18499	5.4	1
0	18500	5.4	1
0	18611	5.45	3
0	18612	5.45	5
0	18613	5.45	3
0	18614	5.45	5
0	18615	5.45	8
0	18616	5.45	5
0	18617	5.45	3
0	18618	5.45	5
0	18619	5.45	3
0	18620	5.45	1
0	18621	5.45	1
0	18756	5.5	3
0	18757	5.5	5
0	18758	5.5	3
0	18759	5.5	5
0	18760	5.5	8
0	18761	5.5	5
0	18762	5.5	3
0	18763	5.5	5
0	18764	5.5	3
0	18765	5.5	1
0	18766	5.5	1
0	18767	5.5	3
0	18768	5.5	5
0	18769	5.5	3
0	18770	5.5	5
0	18771	5.5	8
0	18772	5.5	5
0	18773	5.5	3
0	18774	5.5	5
0	18775	5.5	3
0	18776	5.5	1
0	18777	5.5	1
0	19244	5.55	3
0	19245	5.55	5
0	19246	5.55	3
0	19247	5.55	5
0	19248	5.55	8
0	19249	5.55	5
0	19250	5.55	3
0	19251	5.55	5
0	19252	5.55	3
0	19253	5.55	1
0	19254	5.55	1
0	19404	5.6	3
0	19405	5.6	5
0	19406	5.6	3
0	19407	5.6	5
0	19408	5.6	8
0	19409	5.6	5
0	19410	5.6	3
0	19411	5.6	5
0	19412	5.6	3
0	19413	5.6	1
0	19414	5.6	1
0	19415	5.6	3
0	19416	5.6	5
0	19417	5.6	3
0	19418	5.6	5
0	19419	5.6	8
0	19420	5.6	5
0	19421	5.6	3
0	19422	5.6	5
0	19423	5.6	3
0	19424	5.6	1
0	19425	5.6	1
0	19576	5.65	3
0	19577	5.65	5
0	19578	5.65	3
0	19579	5.65	5
0	19580	5.65	8
0	19581	5.65	5
0	19582	5.65	3
0	19583	5.65	5
0	19584	5.65	3
0	19585	5.65	1
0	19586	5.65	1
0	19784	5.7	3
0	19785	5.7	5
0	19786	5.7	3
0	19787	5.7	5
0	19788	5.7	8
0	19789	5.7	5
0	19790	5.7	3
0	19791	5.7	5
0	19792	5.7	3
0	19793	5.7	1
0	19794	5.7	1
0	19795	5.7	3
0	19796	5.7	5
0	19797	5.7	3
0	19798	5.7	5
0	19799	5.7	8
0	19800	5.7	5
0	19801	5.7	3
0	19802	5.7	5
0	19803	5.7	3
0	19804	5.7	1
0	19805	5.7	1
0	19921	5.75	3
0	19922	5.75	5
0	19923	5.75	3
0	19924	5.75	5
0	19925	5.75	8
0	19926	5.75	5
0	19927	5.75	3
0	19928	5.75	5
0	19929	5.75	3
0	19930	5.75	1
0	19931	5.75	1
0	20037	5.8	3
0	20038	5.8	5
0	20039	5.8	3
0	20040	5.8	5
0	20041	5.8	8
0	20042	5.8	5
0	20043	5.8	3
0	20044	5.8	5
0	20045	5.8	3
0	20046	5.8	1
0	20047	5.8	1
0	20048	5.8	3
0	20049	5.8	5
0	20050	5.8	3
0	20051	5.8	5
0	20052	5.8	8
0	20053	5.8	5
0	20054	5.8	3
0	20055	5.8	5
0	20056	5.8	3
0	20057	5.8	1
0	20058	5.8	1
0	20169	5.85	3
0	20170	5.85	5
0	20171	5.85	3
0	20172	5.85	5
0	20173	5.85	8
0	20174	5.85	5
0	20175	5.85	3
0	20176	5.85	5
0	20177	5.85	3
0	20178	5.85	1
0	20179	5.85	1
0	20268	5.9	3
0	20269	5.9	5
0	20270	5.9	3
0	20271	5.9	5
0	20272	5.9	8
0	20273	5.9	5
0	20274	5.9	3
0	20275	5.9	5
0	20276	5.9	3
0	20277	5.9	1
0	20278	5.9	1
0	20279	5.9	3
0	20280	5.9	5
0	20281	5.9	3
0	20282	5.9	5
0	20283	5.9	8
0	20284	5.9	5
0	20285	5.9	3
0	20286	5.9	5
0	20287	5.9	3
0	20288	5.9	1
0	20289	5.9	1
0	20400	5.95	3
0	20401	5.95	5
0	20402	5.95	3
0	20403	5.95	5
0	20404	5.95	8
0	20405	5.95	5
0	20406	5.95	3
0	20407	5.95	5
0	20408	5.95	3
0	20409	5.95	1
0	20410	5.95	1
0	20533	6	3
0	20534	6	5
0	20535	6	3
0	20536	6	5
0	20537	6	8
0	20538	6	5
0	20539	6	3
0	20540	6	5
0	20541	6	3
0	20542	6	1
0	20543	6	1
0	20544	6	3
0	20545	6	5
0	20546	6	3
0	20547	6	5
0	20548	6	8
0	20549	6	5
0	20550	6	3
0	20551	6	5
0	20552	6	3
0	20553	6	1
0	20554	6	1
0	20728	6.05	3
0	20729	6.05	5
0	20730	6.05	3
0	20731	6.05	5
0	20732	6.05	8
0	20733	6.05	5
0	20734	6.05	3
0	20735	6.05	5
0	20736	6.05	3
0	20737	6.05	1
0	20738	6.05	1
0	21164	6.1	3
0	21165	6.1	5
0	21166	6.1	3
0	21167	6.1	5
0	21168	6.1	8
0	21169	6.1	5
0	21170	6.1	3
0	21171	6.1	5
0	21172	6.1	3
0	21173	6.1	1
0	21174	6.1	1
0	21175	6.1	3
0	21176	6.1	5
0	21177	6.1	3
0	21178	6.1	5
0	21179	6.1	8
0	21180	6.1	5
0	21181	6.1	3
0	21182	6.1	5
0	21183	6.1	3
0	21184	6.1	1
0	21185	6.1	1
0	21393	6.15	3
0	21394	6.15	5
0	21395	6.15	3
0	21396	6.15	5
0	21397	6.15	8
0	21398	6.15	5
0	21399	6.15	3
0	21400	6.15	5
0	21401	6.15	3
0	21402	6.15	1
0	21403	6.15	1
0	21537	6.2	3
0	21538	6.2	5
0	21539	6.2	3
0	21540	6.2	5
0	21541	6.2	8
0	21542	6.2	5
0	21543	6.2	3
0	21544	6.2	5
0	21545	6.2	3
0	21546	6.2	1
0	21547	6.2	1
0	21548	6.2	3
0	21549	6.2	5
0	21550	6.2	3
0	21551	6.2	5
0	21552	6.2	8
0	21553	6.2	5
0	21554	6.2	3
0	21555	6.2	5
0	21556	6.2	3
0	21557	6.2	1
0	21558	6.2	1
0	21807	6.25	3
0	21808	6.25	5
0	21809	6.25	3
0	21810	6.25	5
0	21811	6.25	8
0	21812	6.25	5
0	21813	6.25	3
0	21814	6.25	5
0	21815	6.25	3
0	21816	6.25	1
0	21817	6.25	1
0	21934	6.3	3
0	21935	6.3	5
0	21936	6.3	3
0	21937	6.3	5
0	21938	6.3	8
0	21939	6.3	5
0	21940	6.3	3
0	21941	6.3	5
0	21942	6.3	3
0	21943	6.3	1
0	21944	6.3	1
0	21945	6.3	3
0	21946	6.3	5
0	21947	6.3	3
0	21948	6.3	5
0	21949	6.3	8
0	21950	6.3	5
0	21951	6.3	3
0	21952	6.3	5
0	21953	6.3	3
0	21954	6.3	1
0	21955	6.3	1
0	22089	6.35	3
0	22090	6.35	5
0	22091	6.35	3
0	22092	6.35	5
0	22093	6.35	8
0	22094	6.35	5
0	22095	6.35	3
0	22096	6.35	5
0	22097	6.35	3
0	22098	6.35	1
0	22099	6.35	1
0	22188	6.4	3
0	22189	6.4	5
0	22190	6.4	3
0	22191	6.4	5
0	22192	6.4	8
0	22193	6.4	5
0	22194	6.4	3
0	22195	6.4	5
0	22196	6.4	3
0	22197	6.4	1
0	22198	6.4	1
0	22199	6.4	3
0	22200	6.4	5
0	22201	6.4	3
0	22202	6.4	5
0	22203	6.4	8
0	22204	6.4	5
0	22205	6.4	3
0	22206	6.4	5
0	22207	6.4	3
0	22208	6.4	1
0	22209	6.4	1
0	22320	6.45	3
0	22321	6.45	5
0	22322	6.45	3
0	22323	6.45	5
0	22324	6.45	8
0	22325	6.45	5
0	22326	6.45	3
0	22327	6.45	5
0	22328	6.45	3
0	22329	6.45	1
0	22330	6.45	1
0	22419	6.5	3
0	22420	6.5	5
0	22421	6.5	3
0	22422	6.5	5
0	22423	6.5	8
0	22424	6.5	5
0	22425	6.5	3
0	22426	6.5	5
0	22427	6.5	3
0	22428	6.5	1
0	22429	6.5	1
0	22430	6.5	3
0	22431	6.5	5
0	22432	6.5	3
0	22433	6.5	5
0	22434	6.5	8
0	22435	6.5	5
0	22436	6.5	3
0	22437	6.5	5
0	22438	6.5	3
0	22439	6.5	1
0	22440	6.5	1
0	22574	6.55	3
0	22575	6.55	5
0	22576	6.55	3
0	22577	6.55	5
0	22578	6.55	8
0	22579	6.55	5
0	22580	6.55	3
0	22581	6.55	5
0	22582	6.55	3
0	22583	6.55	1
0	22584	6.55	1
0	22736	6.6	3
0	22737	6.6	5
0	22738	6.6	3
0	22739	6.6	5
0	22740	6.6	8
0	22741	6.6	5
0	22742	6.6	3
0	22743	6.6	5
0	22744	6.6	3
0	22745	6.6	1
0	22746	6.6	1
0	22747	6.6	3
0	22748	6.6	5
0	22749	6.6	3
0	22750	6.6	5
0	22751	6.6	8
0	22752	6.6	5
0	22753	6.6	3
0	22754	6.6	5
0	22755	6.6	3
0	22756	6.6	1
0	22757	6.6	1
0	23190	6.65	3
0	23191	6.65	5
0	23192	6.65	3
0	23193	6.65	5
0	23194	6.65	8
0	23195	6.65	5
0	23196	6.65	3
0	23197	6.65	5
0	23198	6.65	3
0	23199	6.65	1
0	23200	6.65	1
0	23322	6.7	3
0	23323	6.7	5
0	23324	6.7	3
0	23325	6.7	5
0	23326	6.7	8
0	23327	6.7	5
0	23328	6.7	3
0	23329	6.7	5
0	23330	6.7	3
0	23331	6.7	1
0	23332	6.7	1
0	23333	6.7	3
0	23334	6.7	5
0	23335	6.7	3
0	23336	6.7	5
0	23337	6.7	8
0	23338	6.7	5
0	23339	6.7	3
0	23340	6.7	5
0	23341	6.7	3
0	23342	6.7	1
0	23343	6.7	1
0	23528	6.75	3
0	23529	6.75	5
0	23530	6.75	3
0	23531	6.75	5
0	23532	6.75	8
0	23533	6.75	5
0	23534	6.75	3
0	23535	6.75	5
0	23536	6.75	3
0	23537	6.75	1
0	23538	6.75	1
0	23811	6.8	3
0	23812	6.8	5
0	23813	6.8	3
0	23814	6.8	5
0	23815	6.8	8
0	23816	6.8	5
0	23817	6.8	3
0	23818	6.8	5
0	23819	6.8	3
0	23820	6.8	1
0	23821	6.8	1
0	23822	6.8	3
0	23823	6.8	5
0	23824	6.8	3
0	23825	6.8	5
0	23826	6.8	8
0	23827	6.8	5
0	23828	6.8	3
0	23829	6.8	5
0	23830	6.8	3
0	23831	6.8	1
0	23832	6.8	1
0	23943	6.85	3
0	23944	6.85	5
0	23945	6.85	3
0	23946	6.85	5
0	23947	6.85	8
0	23948	6.85	5
0	23949	6.85	3
0	23950	6.85	5
0	23951	6.85	3
0	23952	6.85	1
0	23953	6.85	1
0	24088	6.9	3
0	24089	6.9	5
0	24090	6.9	3
0	24091	6.9	5
0	24092	6.9	8
0	24093	6.9	5
0	24094	6.9	3
0	24095	6.9	5
0	24096	6.9	3
0	24097	6.9	1
0	24098	6.9	1
0	24099	6.9	3
0	24100	6.9	5
0	24101	6.9	3
0	24102	6.9	5
0	24103	6.9	8
0	24104	6.9	5
0	24105	6.9	3
0	24106	6.9	5
0	24107	6.9	3
0	24108	6.9	1
0	24109	6.9	1
0	24220	6.95	3
0	24221	6.95	5
0	24222	6.95	3
0	24223	6.95	5
0	24224	6.95	8
0	24225	6.95	5
0	24226	6.95	3
0	24227	6.95	5
0	24228	6.95	3
0	24229	6.95	1
0	24230	6.95	1
0	24330	7	3
0	24331	7	5
0	24332	7	3
0	24333	7	5
0	24334	7	8
0	24335	7	5
0	24336	7	3
0	24337	7	5
0	24338	7	3
0	24339	7	1
0	24340	7	1
0	24341	7	3
0	24342	7	5
0	24343	7	3
0	24344	7	5
0	24345	7	8
0	24346	7	5
0	24347	7	3
0	24348	7	5
0	24349	7	3
0	24350	7	1
0	24351	7	1
0	24462	7.05	3
0	24463	7.05	5
0	24464	7.05	3
0	24465	7.05	5
0	24466	7.05	8
0	24467	7.05	5
0	24468	7.05	3
0	24469	7.05	5
0	24470	7.05	3
0	24471	7.05	1
0	24472	7.05	1
0	24572	7.1	3
0	24573	7.1	5
0	24574	7.1	3
0	24575	7.1	5
0	24576	7.1	8
0	24577	7.1	5
0	24578	7.1	3
0	24579	7.1	5
0	24580	7.1	3
0	24581	7.1	1
0	24582	7.1	1
0	24583	7.1	3
0	24584	7.1	5
0	24585	7.1	3
0	24586	7.1	5
0	24587	7.1	8
0	24588	7.1	5
0	24589	7.1	3
0	24590	7.1	5
0	24591	7.1	3
0	24592	7.1	1
0	24593	7.1	1
0	24761	7.15	3
0	24762	7.15	5
0	24763	7.15	3
0	24764	7.15	5
0	24765	7.15	8
0	24766	7.15	5
0	24767	7.15	3
0	24768	7.15	5
0	24769	7.15	3
0	24770	7.15	1
0	24771	7.15	1
0	25181	7.2	3
0	25182	7.2	5
0	25183	7.2	3
0	25184	7.2	5
0	25185	7.2	8
0	25186	7.2	5
0	25187	7.2	3
0	25188	7.2	5
0	25189	7.2	3
0	25190	7.2	1
0	25191	7.2	1
0	25192	7.2	3
0	25193	7.2	5
0	25194	7.2	3
0	25195	7.2	5
0	25196	7.2	8
0	25197	7.2	5
0	25198	7.2	3
0	25199	7.2	5
0	25200	7.2	3
0	25201	7.2	1
0	25202	7.2	1
0	25336	7.25	3
0	25337	7.25	5
0	25338	7.25	3
0	25339	7.25	5
0	25340	7.25	8
0	25341	7.25	5
0	25342	7.25	3
0	25343	7.25	5
0	25344	7.25	3
0	25345	7.25	1
0	25346	7.25	1
0	25504	7.3	3
0	25505	7.3	5
0	25506	7.3	3
0	25507	7.3	5
0	25508	7.3	8
0	25509	7.3	5
0	25510	7.3	3
0	25511	7.3	5
0	25512	7.3	3
0	25513	7.3	1
0	25514	7.3	1
0	25515	7.3	3
0	25516	7.3	5
0	25517	7.3	3
0	25518	7.3	5
0	25519	7.3	8
0	25520	7.3	5
0	25521	7.3	3
0	25522	7.3	5
0	25523	7.3	3
0	25524	7.3	1
0	25525	7.3	1
0	25796	7.35	3
0	25797	7.35	5
0	25798	7.35	3
0	25799	7.35	5
0	25800	7.35	8
0	25801	7.35	5
0	25802	7.35	3
0	25803	7.35	5
0	25804	7.35	3
0	25805	7.35	1
0	25806	7.35	1
0	25895	7.4	3
0	25896	7.4	5
0	25897	7.4	3
0	25898	7.4	5
0	25899	7.4	8
0	25900	7.4	5
0	25901	7.4	3
0	25902	7.4	5
0	25903	7.4	3
0	25904	7.4	1
0	25905	7.4	1
0	25906	7.4	3
0	25907	7.4	5
0	25908	7.4	3
0	25909	7.4	5
0	25910	7.4	8
0	25911	7.4	5
0	25912	7.4	3
0	25913	7.4	5
0	25914	7.4	3
0	25915	7.4	1
0	25916	7.4	1
0	26073	7.45	3
0	26074	7.45	5
0	26075	7.45	3
0	26076	7.45	5
0	26077	7.45	8
0	26078	7.45	5
0	26079	7.45	3
0	26080	7.45	5
0	26081	7.45	3
0	26082	7.45	1
0	26083	7.45	1
0	26172	7.5	3
0	26173	7.5	5
0	26174	7.5	3
0	26175	7.5	5
0	26176	7.5	8
0	26177	7.5	5
0	26178	7.5	3
0	26179	7.5	5
0	26180	7.5	3
0	26181	7.5	1
0	26182	7.5	1
0	26183	7.5	3
0	26184	7.5	5
0	26185	7.5	3
0	26186	7.5	5
0	26187	7.5	8
0	26188	7.5	5
0	26189	7.5	3
0	26190	7.5	5
0	26191	7.5	3
0	26192	7.5	1
0	26193	7.5	1
0	26304	7.55	3
0	26305	7.55	5
0	26306	7.55	3
0	26307	7.55	5
0	26308	7.55	8
0	26309	7.55	5
0	26310	7.55	3
0	26311	7.55	5
0	26312	7.55	3
0	26313	7.55	1
0	26314	7.55	1
0	26403	7.6	3
0	26404	7.6	5
0	26405	7.6	3
0	26406	7.6	5
0	26407	7.6	8
0	26408	7.6	5
0	26409	7.6	3
0	26410	7.6	5
0	26411	7.6	3
0	26412	7.6	1
0	26413	7.6	1
0	26414	7.6	3
0	26415	7.6	5
0	26416	7.6	3
0	26417	7.6	5
0	26418	7.6	8
0	26419	7.6	5
0	26420	7.6	3
0	26421	7.6	5
0	26422	7.6	3
0	26423	7.6	1
0	26424	7.6	1
0	26558	7.65	3
0	26559	7.65	5
0	26560	7.65	3
0	26561	7.65	5
0	26562	7.65	8
0	26563	7.65	5
0	26564	7.65	3
0	26565	7.65	5
0	26566	7.65	3
0	26567	7.65	1
0	26568	7.65	1
0	26703	7.7	3
0	26704	7.7	5
0	26705	7.7	3
0	26706	7.7	5
0	26707	7.7	8
0	26708	7.7	5
0	26709	7.7	3
0	26710	7.7	5
0	26711	7.7	3
0	26712	7.7	1
0	26713	7.7	1
0	26714	7.7	3
0	26715	7.7	5
0	26716	7.7	3
0	26717	7.7	5
0	26718	7.7	8
0	26719	7.7	5
0	26720	7.7	3
0	26721	7.7	5
0	26722	7.7	3
0	26723	7.7	1
0	26724	7.7	1
0	27139	7.75	3
0	27140	7.75	5
0	27141	7.75	3
0	27142	7.75	5
0	27143	7.75	8
0	27144	7.75	5
0	27145	7.75	3
0	27146	7.75	5
0	27147	7.75	3
0	27148	7.75	1
0	27149	7.75	1
0	27266	7.8	3
0	27267	7.8	5
0	27268	7.8	3
0	27269	7.8	5
0	27270	7.8	8
0	27271	7.8	5
0	27272	7.8	3
0	27273	7.8	5
0	27274	7.8	3
0	27275	7.8	1
0	27276	7.8	1
0	27277	7.8	3
0	27278	7.8	5
0	27279	7.8	3
0	27280	7.8	5
0	27281	7.8	8
0	27282	7.8	5
0	27283	7.8	3
0	27284	7.8	5
0	27285	7.8	3
0	27286	7.8	1
0	27287	7.8	1
0	27461	7.85	3
0	27462	7.85	5
0	27463	7.85	3
0	27464	7.85	5
0	27465	7.85	8
0	27466	7.85	5
0	27467	7.85	3
0	27468	7.85	5
0	27469	7.85	3
0	27470	7.85	1
0	27471	7.85	1
0	27719	7.9	3
0	27720	7.9	5
0	27721	7.9	3
0	27722	7.9	5
0	27723	7.9	8
0	27724	7.9	5
0	27725	7.9	3
0	27726	7.9	5
0	27727	7.9	3
0	27728	7.9	1
0	27729	7.9	1
0	27730	7.9	3
0	27731	7.9	5
0	27732	7.9	3
0	27733	7.9	5
0	27734	7.9	8
0	27735	7.9	5
0	27736	7.9	3
0	27737	7.9	5
0	27738	7.9	3
0	27739	7.9	1
0	27740	7.9	1
0	27851	7.95	3
0	27852	7.95	5
0	27853	7.95	3
0	27854	7.95	5
0	27855	7.95	8
0	27856	7.95	5
0	27857	7.95	3
0	27858	7.95	5
0	27859	7.95	3
0	27860	7.95	1
0	27861	7.95	1
0	27966	8	3
0	27967	8	5
0	27968	8	3
0	27969	8	5
0	27970	8	8
0	27971	8	5
0	27972	8	3
0	27973	8	5
0	27974	8	3
0	27975	8	1
0	27976	8	1
0	27977	8	3
0	27978	8	5
0	27979	8	3
0	27980	8	5
0	27981	8	8
0	27982	8	5
0	27983	8	3
0	27984	8	5
0	27985	8	3
0	27986	8	1
0	27987	8	1
0	28098	8.05	3
0	28099	8.05	5
0	28100	8.05	3
0	28101	8.05	5
0	28102	8.05	8
0	28103	8.05	5
0	28104	8.05	3
0	28105	8.05	5
0	28106	8.05	3
0	28107	8.05	1
0	28108	8.05	1
0	28208	8.1	3
0	28209	8.1	5
0	28210	8.1	3
0	28211	8.1	5
0	28212	8.1	8
0	28213	8.1	5
0	28214	8.1	3
0	28215	8.1	5
0	28216	8.1	3
0	28217	8.1	1
0	28218	8.1	1
0	28219	8.1	3
0	28220	8.1	5
0	28221	8.1	3
0	28222	8.1	5
0	28223	8.1	8
0	28224	8.1	5
0	28225	8.1	3
0	28226	8.1	5
0	28227	8.1	3
0	28228	8.1	1
0	28229	8.1	1
0	28374	8.15	3
0	28375	8.15	5
0	28376	8.15	3
0	28377	8.15	5
0	28378	8.15	8
0	28379	8.15	5
0	28380	8.15	3
0	28381	8.15	5
0	28382	8.15	3
0	28383	8.15	1
0	28384	8.15	1
0	28565	8.2	3
0	28566	8.2	5
0	28567	8.2	3
0	28568	8.2	5
0	28569	8.2	8
0	28570	8.2	5
0	28571	8.2	3
0	28572	8.2	5
0	28573	8.2	3
0	28574	8.2	1
0	28575	8.2	1
0	28576	8.2	3
0	28577	8.2	5
0	28578	8.2	3
0	28579	8.2	5
0	28580	8.2	8
0	28581	8.2	5
0	28582	8.2	3
0	28583	8.2	5
0	28584	8.2	3
0	28585	8.2	1
0	28586	8.2	1
0	28697	8.25	3
0	28698	8.25	5
0	28699	8.25	3
0	28700	8.25	5
0	28701	8.25	8
0	28702	8.25	5
0	28703	8.25	3
0	28704	8.25	5
0	28705	8.25	3
0	28706	8.25	1
0	28707	8.25	1
0	29087	8.3	3
0	29088	8.3	5
0	29089	8.3	3
0	29090	8.3	5
0	29091	8.3	8
0	29092	8.3	5
0	29093	8.3	3
0	29094	8.3	5
0	29095	8.3	3
0	29096	8.3	1
0	29097	8.3	1
0	29098	8.3	3
0	29099	8.3	5
0	29100	8.3	3
0	29101	8.3	5
0	29102	8.3	8
0	29103	8.3	5
0	29104	8.3	3
0	29105	8.3	5
0	29106	8.3	3
0	29107	8.3	1
0	29108	8.3	1
0	29247	8.35	3
0	29248	8.35	5
0	29249	8.35	3
0	29250	8.35	5
0	29251	8.35	8
0	29252	8.35	5
0	29253	8.35	3
0	29254	8.35	5
0	29255	8.35	3
0	29256	8.35	1
0	29257	8.35	1
0	29397	8.4	3
0	29398	8.4	5
0	29399	8.4	3
0	29400	8.4	5
0	29401	8.4	8
0	29402	8.4	5
0	29403	8.4	3
0	29404	8.4	5
0	29405	8.4	3
0	29406	8.4	1
0	29407	8.4	1
0	29408	8.4	3
0	29409	8.4	5
0	29410	8.4	3
0	29411	8.4	5
0	29412	8.4	8
0	29413	8.4	5
0	29414	8.4	3
0	29415	8.4	5
0	29416	8.4	3
0	29417	8.4	1
0	29418	8.4	1
0	29643	8.45	3
0	29644	8.45	5
0	29645	8.45	3
0	29646	8.45	5
0	29647	8.45	8
0	29648	8.45	5
0	29649	8.45	3
0	29650	8.45	5
0	29651	8.45	3
0	29652	8.45	1
0	29653	8.45	1
0	29742	8.5	3
0	29743	8.5	5
0	29744	8.5	3
0	29745	8.5	5
0	29746	8.5	8
0	29747	8.5	5
0	29748	8.5	3
0	29749	8.5	5
0	29750	8.5	3
0	29751	8.5	1
0	29752	8.5	1
0	29753	8.5	3
0	29754	8.5	5
0	29755	8.5	3
0	29756	8.5	5
0	29757	8.5	8
0	29758	8.5	5
0	29759	8.5	3
0	29760	8.5	5
0	29761	8.5	3
0	29762	8.5	1
0	29763	8.5	1
0	29874	8.55	3
0	29875	8.55	5
0	29876	8.55	3
0	29877	8.55	5
0	29878	8.55	8
0	29879	8.55	5
0	29880	8.55	3
0	29881	8.55	5
0	29882	8.55	3
0	29883	8.55	1
0	29884	8.55	1
0	29973	8.6	3
0	29974	8.6	5
0	29975	8.6	3
0	29976	8.6	5
0	29977	8.6	8
0	29978	8.6	5
0	29979	8.6	3
0	29980	8.6	5
0	29981	8.6	3
0	29982	8.6	1
0	29983	8.6	1
0	29984	8.6	3
0	29985	8.6	5
0	29986	8.6	3
0	29987	8.6	5
0	29988	8.6	8
0	29989	8.6	5
0	29990	8.6	3
0	29991	8.6	5
0	29992	8.6	3
0	29993	8.6	1
0	29994	8.6	1
0	30105	8.65	3
0	30106	8.65	5
0	30107	8.65	3
0	30108	8.65	5
0	30109	8.65	8
0	30110	8.65	5
0	30111	8.65	3
0	30112	8.65	5
0	30113	8.65	3
0	30114	8.65	1
0	30115	8.65	1
0	30204	8.7	3
0	30205	8.7	5
0	30206	8.7	3
0	30207	8.7	5
0	30208	8.7	8
0	30209	8.7	5
0	30210	8.7	3
0	30211	8.7	5
0	30212	8.7	3
0	30213	8.7	1
0	30214	8.7	1
0	30215	8.7	3
0	30216	8.7	5
0	30217	8.7	3
0	30218	8.7	5
0	30219	8.7	8
0	30220	8.7	5
0	30221	8.7	3
0	30222	8.7	5
0	30223	8.7	3
0	30224	8.7	1
0	30225	8.7	1
0	30399	8.75	3
0	30400	8.75	5
0	30401	8.75	3
0	30402	8.75	5
0	30403	8.75	8
0	30404	8.75	5
0	30405	8.75	3
0	30406	8.75	5
0	30407	8.75	3
0	30408	8.75	1
0	30409	8.75	1
0	30526	8.8	3
0	30527	8.8	5
0	30528	8.8	3
0	30529	8.8	5
0	30530	8.8	8
0	30531	8.8	5
0	30532	8.8	3
0	30533	8.8	5
0	30534	8.8	3
0	30535	8.8	1
0	30536	8.8	1
0	30537	8.8	3
0	30538	8.8	5
0	30539	8.8	3
0	30540	8.8	5
0	30541	8.8	8
0	30542	8.8	5
0	30543	8.8	3
0	30544	8.8	5
0	30545	8.8	3
0	30546	8.8	1
0	30547	8.8	1
0	30905	8.85	3
0	30906	8.85	5
0	30907	8.85	3
0	30908	8.85	5
0	30909	8.85	8
0	30910	8.85	5
0	30911	8.85	3
0	30912	8.85	5
0	30913	8.85	3
0	30914	8.85	1
0	30915	8.85	1
0	31021	8.9	3
0	31022	8.9	5
0	31023	8.9	3
0	31024	8.9	5
0	31025	8.9	8
0	31026	8.9	5
0	31027	8.9	3
0	31028	8.9	5
0	31029	8.9	3
0	31030	8.9	1
0	31031	8.9	1
0	31032	8.9	3
0	31033	8.9	5
0	31034	8.9	3
0	31035	8.9	5
0	31036	8.9	8
0	31037	8.9	5
0	31038	8.9	3
0	31039	8.9	5
0	31040	8.9	3
0	31041	8.9	1
0	31042	8.9	1
0	31222	8.95	3
0	31223	8.95	5
0	31224	8.95	3
0	31225	8.95	5
0	31226	8.95	8
0	31227	8.95	5
0	31228	8.95	3
0	31229	8.95	5
0	31230	8.95	3
0	31231	8.95	1
0	31232	8.95	1
0	31441	9	3
0	31442	9	5
0	31443	9	3
0	31444	9	5
0	31445	9	8
0	31446	9	5
0	31447	9	3
0	31448	9	5
0	31449	9	3
0	31450	9	1
0	31451	9	1
0	31452	9	3
0	31453	9	5
0	31454	9	3
0	31455	9	5
0	31456	9	8
0	31457	9	5
0	31458	9	3
0	31459	9	5
0	31460	9	3
0	31461	9	1
0	31462	9	1
0	31596	9.05	3
0	31597	9.05	5
0	31598	9.05	3
0	31599	9.05	5
0	31600	9.05	8
0	31601	9.05	5
0	31602	9.05	3
0	31603	9.05	5
0	31604	9.05	3
0	31605	9.05	1
0	31606	9.05	1
0	31706	9.1	3
0	31707	9.1	5
0	31708	9.1	3
0	31709	9.1	5
0	31710	9.1	8
0	31711	9.1	5
0	31712	9.1	3
0	31713	9.1	5
0	31714	9.1	3
0	31715	9.1	1
0	31716	9.1	1
0	31717	9.1	3
0	31718	9.1	5
0	31719	9.1	3
0	31720	9.1	5
0	31721	9.1	8
0	31722	9.1	5
0	31723	9.1	3
0	31724	9.1	5
0	31725	9.1	3
0	31726	9.1	1
0	31727	9.1	1
0	31849	9.15	3
0	31850	9.15	5
0	31851	9.15	3
0	31852	9.15	5
0	31853	9.15	8
0	31854	9.15	5
0	31855	9.15	3
0	31856	9.15	5
0	31857	9.15	3
0	31858	9.15	1
0	31859	9.15	1
0	31971	9.2	3
0	31972	9.2	5
0	31973	9.2	3
0	31974	9.2	5
0	31975	9.2	8
0	31976	9.2	5
0	31977	9.2	3
0	31978	9.2	5
0	31979	9.2	3
0	31980	9.2	1
0	31981	9.2	1
0	31982	9.2	3
0	31983	9.2	5
0	31984	9.2	3
0	31985	9.2	5
0	31986	9.2	8
0	31987	9.2	5
0	31988	9.2	3
0	31989	9.2	5
0	31990	9.2	3
0	31991	9.2	1
0	31992	9.2	1
0	32103	9.25	3
0	32104	9.25	5
0	32105	9.25	3
0	32106	9.25	5
0	32107	9.25	8
0	32108	9.25	5
0	32109	9.25	3
0	32110	9.25	5
0	32111	9.25	3
0	32112	9.25	1
0	32113	9.25	1
0	32271	9.3	3
0	32272	9.3	5
0	32273	9.3	3
0	32274	9.3	5
0	32275	9.3	8
0	32276	9.3	5
0	32277	9.3	3
0	32278	9.3	5
0	32279	9.3	3
0	32280	9.3	1
0	32281	9.3	1
0	32282	9.3	3
0	32283	9.3	5
0	32284	9.3	3
0	32285	9.3	5
0	32286	9.3	8
0	32287	9.3	5
0	32288	9.3	3
0	32289	9.3	5
0	32290	9.3	3
0	32291	9.3	1
0	32292	9.3	1
0	32449	9.35	3
0	32450	9.35	5
0	32451	9.35	3
0	32452	9.35	5
0	32453	9.35	8
0	32454	9.35	5
0	32455	9.35	3
0	32456	9.35	5
0	32457	9.35	3
0	32458	9.35	1
0	32459	9.35	1
0	32801	9.4	3
0	32802	9.4	5
0	32803	9.4	3
0	32804	9.4	5
0	32805	9.4	8
0	32806	9.4	5
0	32807	9.4	3
0	32808	9.4	5
0	32809	9.4	3
0	32810	9.4	1
0	32811	9.4	1
0	32812	9.4	3
0	32813	9.4	5
0	32814	9.4	3
0	32815	9.4	5
0	32816	9.4	8
0	32817	9.4	5
0	32818	9.4	3
0	32819	9.4	5
0	32820	9.4	3
0	32821	9.4	1
0	32822	9.4	1
0	32961	9.45	3
0	32962	9.45	5
0	32963	9.45	3
0	32964	9.45	5
0	32965	9.45	8
0	32966	9.45	5
0	32967	9.45	3
0	32968	9.45	5
0	32969	9.45	3
0	32970	9.45	1
0	32971	9.45	1
0	33192	9.5	3
0	33193	9.5	5
0	33194	9.5	3
0	33195	9.5	5
0	33196	9.5	8
0	33197	9.5	5
0	33198	9.5	3
0	33199	9.5	5
0	33200	9.5	3
0	33201	9.5	1
0	33202	9.5	1
0	33203	9.5	3
0	33204	9.5	5
0	33205	9.5	3
0	33206	9.5	5
0	33207	9.5	8
0	33208	9.5	5
0	33209	9.5	3
0	33210	9.5	5
0	33211	9.5	3
0	33212	9.5	1
0	33213	9.5	1
0	33433	9.55	3
0	33434	9.55	5
0	33435	9.55	3
0	33436	9.55	5
0	33437	9.55	8
0	33438	9.55	5
0	33439	9.55	3
0	33440	9.55	5
0	33441	9.55	3
0	33442	9.55	1
0	33443	9.55	1
0	33578	9.6	3
0	33579	9.6	5
0	33580	9.6	3
0	33581	9.6	5
0	33582	9.6	8
0	33583	9.6	5
0	33584	9.6	3
0	33585	9.6	5
0	33586	9.6	3
0	33587	9.6	1
0	33588	9.6	1
0	33589	9.6	3
0	33590	9.6	5
0	33591	9.6	3
0	33592	9.6	5
0	33593	9.6	8
0	33594	9.6	5
0	33595	9.6	3
0	33596	9.6	5
0	33597	9.6	3
0	33598	9.6	1
0	33599	9.6	1
0	33732	9.65	3
0	33733	9.65	5
0	33734	9.65	3
0	33735	9.65	5
0	33736	9.65	8
0	33737	9.65	5
0	33738	9.65	3
0	33739	9.65	5
0	33740	9.65	3
0	33741	9.65	1
0	33742	9.65	1
0	33831	9.7	3
0	33832	9.7	5
0	33833	9.7	3
0	33834	9.7	5
0	33835	9.7	8
0	33836	9.7	5
0	33837	9.7	3
0	33838	9.7	5
0	33839	9.7	3
0	33840	9.7	1
0	33841	9.7	1
0	33842	9.7	3
0	33843	9.7	5
0	33844	9.7	3
0	33845	9.7	5
0	33846	9.7	8
0	33847	9.7	5
0	33848	9.7	3
0	33849	9.7	5
0	33850	9.7	3
0	33851	9.7	1
0	33852	9.7	1
0	33973	9.75	3
0	33974	9.75	5
0	33975	9.75	3
0	33976	9.75	5
0	33977	9.75	8
0	33978	9.75	5
0	33979	9.75	3
0	33980	9.75	5
0	33981	9.75	3
0	33982	9.75	1
0	33983	9.75	1
0	34095	9.8	3
0	34096	9.8	5
0	34097	9.8	3
0	34098	9.8	5
0	34099	9.8	8
0	34100	9.8	5
0	34101	9.8	3
0	34102	9.8	5
0	34103	9.8	3
0	34104	9.8	1
0	34105	9.8	1
0	34106	9.8	3
0	34107	9.8	5
0	34108	9.8	3
0	34109	9.8	5
0	34110	9.8	8
0	34111	9.8	5
0	34112	9.8	3
0	34113	9.8	5
0	34114	9.8	3
0	34115	9.8	1
0	34116	9.8	1
0	34278	9.85	3
0	34279	9.85	5
0	34280	9.85	3
0	34281	9.85	5
0	34282	9.85	8
0	34283	9.85	5
0	34284	9.85	3
0	34285	9.85	5
0	34286	9.85	3
0	34287	9.85	1
0	34288	9.85	1
0	34469	9.9	3
0	34470	9.9	5
0	34471	9.9	3
0	34472	9.9	5
0	34473	9.9	8
0	34474	9.9	5
0	34475	9.9	3
0	34476	9.9	5
0	34477	9.9	3
0	34478	9.9	1
0	34479	9.9	1
0	34480	9.9	3
0	34481	9.9	5
0	34482	9.9	3
0	34483	9.9	5
0	34484	9.9	8
0	34485	9.9	5
0	34486	9.9	3
0	34487	9.9	5
0	34488	9.9	3
0	34489	9.9	1
0	34490	9.9	1
0	34859	9.95	3
0	34860	9.95	5
0	34861	9.95	3
0	34862	9.95	5
0	34863	9.95	8
0	34864	9.95	5
0	34865	9.95	3
0	34866	9.95	5
0	34867	9.95	3
0	34868	9.95	1
0	34869	9.95	1
0	35015	10	3
0	35016	10	5
0	35017	10	3
0	35018	10	5
0	35019	10	8
0	35020	10	5
0	35021	10	3
0	35022	10	5
0	35023	10	3
0	35024	10	1
0	35025	10	1
0	35026	10	3
0	35027	10	5
0	35028	10	3
0	35029	10	5
0	35030	10	8
0	35031	10	5
0	35032	10	3
0	35033	10	5
0	35034	10	3
0	35035	10	1
0	35036	10	1
0	35267	10.05	3
0	35268	10.05	5
0	35269	10.05	3
0	35270	10.05	5
0	35271	10.05	8
0	35272	10.05	5
0	35273	10.05	3
0	35274	10.05	5
0	35275	10.05	3
0	35276	10.05	1
0	35277	10.05	1
0	35451	10.1	3
0	35452	10.1	5
0	35453	10.1	3
0	35454	10.1	5
0	35455	10.1	8
0	35456	10.1	5
0	35457	10.1	3
0	35458	10.1	5
0	35459	10.1	3
0	35460	10.1	1
0	35461	10.1	1
0	35462	10.1	3
0	35463	10.1	5
0	35464	10.1	3
0	35465	10.1	5
0	35466	10.1	8
0	35467	10.1	5
0	35468	10.1	3
0	35469	10.1	5
0	35470	10.1	3
0	35471	10.1	1
0	35472	10.1	1
0	35616	10.15	3
0	35617	10.15	5
0	35618	10.15	3
0	35619	10.15	5
0	35620	10.15	8
0	35621	10.15	5
0	35622	10.15	3
0	35623	10.15	5
0	35624	10.15	3
0	35625	10.15	1
0	35626	10.15	1
0	35715	10.2	3
0	35716	10.2	5
0	35717	10.2	3
0	35718	10.2	5
0	35719	10.2	8
0	35720	10.2	5
0	35721	10.2	3
0	35722	10.2	5
0	35723	10.2	3
0	35724	10.2	1
0	35725	10.2	1
0	35726	10.2	3
0	35727	10.2	5
0	35728	10.2	3
0	35729	10.2	5
0	35730	10.2	8
0	35731	10.2	5
0	35732	10.2	3
0	35733	10.2	5
0	35734	10.2	3
0	35735	10.2	1
0	35736	10.2	1
0	35847	10.25	3
0	35848	10.25	5
0	35849	10.25	3
0	35850	10.25	5
0	35851	10.25	8
0	35852	10.25	5
0	35853	10.25	3
0	35854	10.25	5
0	35855	10.25	3
0	35856	10.25	1
0	35857	10.25	1
0	35969	10.3	3
0	35970	10.3	5
0	35971	10.3	3
0	35972	10.3	5
0	35973	10.3	8
0	35974	10.3	5
0	35975	10.3	3
0	35976	10.3	5
0	35977	10.3	3
0	35978	10.3	1
0	35979	10.3	1
0	35980	10.3	3
0	35981	10.3	5
0	35982	10.3	3
0	35983	10.3	5
0	35984	10.3	8
0	35985	10.3	5
0	35986	10.3	3
0	35987	10.3	5
0	35988	10.3	3
0	35989	10.3	1
0	35990	10.3	1
0	36124	10.35	3
0	36125	10.35	5
0	36126	10.35	3
0	36127	10.35	5
0	36128	10.35	8
0	36129	10.35	5
0	36130	10.35	3
0	36131	10.35	5
0	36132	10.35	3
0	36133	10.35	1
0	36134	10.35	1
0	36269	10.4	3
0	36270	10.4	5
0	36271	10.4	3
0	36272	10.4	5
0	36273	10.4	8
0	36274	10.4	5
0	36275	10.4	3
0	36276	10.4	5
0	36277	10.4	3
0	36278	10.4	1
0	36279	10.4	1
0	36280	10.4	3
0	36281	10.4	5
0	36282	10.4	3
0	36283	10.4	5
0	36284	10.4	8
0	36285	10.4	5
0	36286	10.4	3
0	36287	10.4	5
0	36288	10.4	3
0	36289	10.4	1
0	36290	10.4	1
0	36493	10.45	3
0	36494	10.45	5
0	36495	10.45	3
0	36496	10.45	5
0	36497	10.45	8
0	36498	10.45	5
0	36499	10.45	3
0	36500	10.45	5
0	36501	10.45	3
0	36502	10.45	1
0	36503	10.45	1
0	36822	10.5	3
0	36823	10.5	5
0	36824	10.5	3
0	36825	10.5	5
0	36826	10.5	8
0	36827	10.5	5
0	36828	10.5	3
0	36829	10.5	5
0	36830	10.5	3
0	36831	10.5	1
0	36832	10.5	1
0	36833	10.5	3
0	36834	10.5	5
0	36835	10.5	3
0	36836	10.5	5
0	36837	10.5	8
0	36838	10.5	5
0	36839	10.5	3
0	36840	10.5	5
0	36841	10.5	3
0	36842	10.5	1
0	36843	10.5	1
0	36977	10.55	3
0	36978	10.55	5
0	36979	10.55	3
0	36980	10.55	5
0	36981	10.55	8
0	36982	10.55	5
0	36983	10.55	3
0	36984	10.55	5
0	36985	10.55	3
0	36986	10.55	1
0	36987	10.55	1
0	37185	10.6	3
0	37186	10.6	5
0	37187	10.6	3
0	37188	10.6	5
0	37189	10.6	8
0	37190	10.6	5
0	37191	10.6	3
0	37192	10.6	5
0	37193	10.6	3
0	37194	10.6	1
0	37195	10.6	1
0	37196	10.6	3
0	37197	10.6	5
0	37198	10.6	3
0	37199	10.6	5
0	37200	10.6	8
0	37201	10.6	5
0	37202	10.6	3
0	37203	10.6	5
0	37204	10.6	3
0	37205	10.6	1
0	37206	10.6	1
0	37380	10.65	3
0	37381	10.65	5
0	37382	10.65	3
0	37383	10.65	5
0	37384	10.65	8
0	37385	10.65	5
0	37386	10.65	3
0	37387	10.65	5
0	37388	10.65	3
0	37389	10.65	1
0	37390	10.65	1
0	37496	10.7	3
0	37497	10.7	5
0	37498	10.7	3
0	37499	10.7	5
0	37500	10.7	8
0	37501	10.7	5
0	37502	10.7	3
0	37503	10.7	5
0	37504	10.7	3
0	37505	10.7	1
0	37506	10.7	1
0	37507	10.7	3
0	37508	10.7	5
0	37509	10.7	3
0	37510	10.7	5
0	37511	10.7	8
0	37512	10.7	5
0	37513	10.7	3
0	37514	10.7	5
0	37515	10.7	3
0	37516	10.7	1
0	37517	10.7	1
0	37628	10.75	3
0	37629	10.75	5
0	37630	10.75	3
0	37631	10.75	5
0	37632	10.75	8
0	37633	10.75	5
0	37634	10.75	3
0	37635	10.75	5
0	37636	10.75	3
0	37637	10.75	1
0	37638	10.75	1
0	37727	10.8	3
0	37728	10.8	5
0	37729	10.8	3
0	37730	10.8	5
0	37731	10.8	8
0	37732	10.8	5
0	37733	10.8	3
0	37734	10.8	5
0	37735	10.8	3
0	37736	10.8	1
0	37737	10.8	1
0	37738	10.8	3
0	37739	10.8	5
0	37740	10.8	3
0	37741	10.8	5
0	37742	10.8	8
0	37743	10.8	5
0	37744	10.8	3
0	37745	10.8	5
0	37746	10.8	3
0	37747	10.8	1
0	37748	10.8	1
0	37882	10.85	3
0	37883	10.85	5
0	37884	10.85	3
0	37885	10.85	5
0	37886	10.85	8
0	37887	10.85	5
0	37888	10.85	3
0	37889	10.85	5
0	37890	10.85	3
0	37891	10.85	1
0	37892	10.85	1
0	37998	10.9	3
0	37999	10.9	5
0	38000	10.9	3
0	38001	10.9	5
0	38002	10.9	8
0	38003	10.9	5
0	38004	10.9	3
0	38005	10.9	5
0	38006	10.9	3
0	38007	10.9	1
0	38008	10.9	1
0	38009	10.9	3
0	38010	10.9	5
0	38011	10.9	3
0	38012	10.9	5
0	38013	10.9	8
0	38014	10.9	5
0	38015	10.9	3
0	38016	10.9	5
0	38017	10.9	3
0	38018	10.9	1
0	38019	10.9	1
0	38176	10.95	3
0	38177	10.95	5
0	38178	10.95	3
0	38179	10.95	5
0	38180	10.95	8
0	38181	10.95	5
0	38182	10.95	3
0	38183	10.95	5
0	38184	10.95	3
0	38185	10.95	1
0	38186	10.95	1
0	38378	11	3
0	38379	11	5
0	38380	11	3
0	38381	11	5
0	38382	11	8
0	38383	11	5
0	38384	11	3
0	38385	11	5
0	38386	11	3
0	38387	11	1
0	38388	11	1
0	38389	11	3
0	38390	11	5
0	38391	11	3
0	38392	11	5
0	38393	11	8
0	38394	11	5
0	38395	11	3
0	38396	11	5
0	38397	11	3
0	38398	11	1
0	38399	11	1
0	38856	11.05	3
0	38857	11.05	5
0	38858	11.05	3
0	38859	11.05	5
0	38860	11.05	8
0	38861	11.05	5
0	38862	11.05	3
0	38863	11.05	5
0	38864	11.05	3
0	38865	11.05	1
0	38866	11.05	1
0	39095	11.1	3
0	39096	11.1	5
0	39097	11.1	3
0	39098	11.1	5
0	39099	11.1	8
0	39100	11.1	5
0	39101	11.1	3
0	39102	11.1	5
0	39103	11.1	3
0	39104	11.1	1
0	39105	11.1	1
0	39106	11.1	3
0	39107	11.1	5
0	39108	11.1	3
0	39109	11.1	5
0	39110	11.1	8
0	39111	11.1	5
0	39112	11.1	3
0	39113	11.1	5
0	39114	11.1	3
0	39115	11.1	1
0	39116	11.1	1
0	39623	11.15	3
0	39624	11.15	5
0	39625	11.15	3
0	39626	11.15	5
0	39627	11.15	8
0	39628	11.15	5
0	39629	11.15	3
0	39630	11.15	5
0	39631	11.15	3
0	39632	11.15	1
0	39633	11.15	1
0	40013	11.2	3
0	40014	11.2	5
0	40015	11.2	3
0	40016	11.2	5
0	40017	11.2	8
0	40018	11.2	5
0	40019	11.2	3
0	40020	11.2	5
0	40021	11.2	3
0	40022	11.2	1
0	40023	11.2	1
0	40024	11.2	3
0	40025	11.2	5
0	40026	11.2	3
0	40027	11.2	5
0	40028	11.2	8
0	40029	11.2	5
0	40030	11.2	3
0	40031	11.2	5
0	40032	11.2	3
0	40033	11.2	1
0	40034	11.2	1
0	40419	11.25	3
0	40420	11.25	5
0	40421	11.25	3
0	40422	11.25	5
0	40423	11.25	8
0	40424	11.25	5
0	40425	11.25	3
0	40426	11.25	5
0	40427	11.25	3
0	40428	11.25	1
0	40429	11.25	1
0	40739	11.3	3
0	40740	11.3	5
0	40741	11.3	3
0	40742	11.3	5
0	40743	11.3	8
0	40744	11.3	5
0	40745	11.3	3
0	40746	11.3	5
0	40747	11.3	3
0	40748	11.3	1
0	40749	11.3	1
0	40750	11.3	3
0	40751	11.3	5
0	40752	11.3	3
0	40753	11.3	5
0	40754	11.3	8
0	40755	11.3	5
0	40756	11.3	3
0	40757	11.3	5
0	40758	11.3	3
0	40759	11.3	1
0	40760	11.3	1
0	40986	11.35	3
0	40987	11.35	5
0	40988	11.35	3
0	40989	11.35	5
0	40990	11.35	8
0	40991	11.35	5
0	40992	11.35	3
0	40993	11.35	5
0	40994	11.35	3
0	40995	11.35	1
0	40996	11.35	1
0	41192	11.4	3
0	41193	11.4	5
0	41194	11.4	3
0	41195	11.4	5
0	41196	11.4	8
0	41197	11.4	5
0	41198	11.4	3
0	41199	11.4	5
0	41200	11.4	3
0	41201	11.4	1
0	41202	11.4	1
0	41203	11.4	3
0	41204	11.4	5
0	41205	11.4	3
0	41206	11.4	5
0	41207	11.4	8
0	41208	11.4	5
0	41209	11.4	3
0	41210	11.4	5
0	41211	11.4	3
0	41212	11.4	1
0	41213	11.4	1
0	41450	11.45	3
0	41451	11.45	5
0	41452	11.45	3
0	41453	11.45	5
0	41454	11.45	8
0	41455	11.45	5
0	41456	11.45	3
0	41457	11.45	5
0	41458	11.45	3
0	41459	11.45	1
0	41460	11.45	1
0	41694	11.5	3
0	41695	11.5	5
0	41696	11.5	3
0	41697	11.5	5
0	41698	11.5	8
0	41699	11.5	5
0	41700	11.5	3
0	41701	11.5	5
0	41702	11.5	3
0	41703	11.5	1
0	41704	11.5	1
0	41705	11.5	3
0	41706	11.5	5
0	41707	11.5	3
0	41708	11.5	5
0	41709	11.5	8
0	41710	11.5	5
0	41711	11.5	3
0	41712	11.5	5
0	41713	11.5	3
0	41714	11.5	1
0	41715	11.5	1
0	42046	11.55	3
0	42047	11.55	5
0	42048	11.55	3
0	42049	11.55	5
0	42050	11.55	8
0	42051	11.55	5
0	42052	11.55	3
0	42053	11.55	5
0	42054	11.55	3
0	42055	11.55	1
0	42056	11.55	1
0	42420	11.6	3
0	42421	11.6	5
0	42422	11.6	3
0	42423	11.6	5
0	42424	11.6	8
0	42425	11.6	5
0	42426	11.6	3
0	42427	11.6	5
0	42428	11.6	3
0	42429	11.6	1
0	42430	11.6	1
0	42431	11.6	3
0	42432	11.6	5
0	42433	11.6	3
0	42434	11.6	5
0	42435	11.6	8
0	42436	11.6	5
0	42437	11.6	3
0	42438	11.6	5
0	42439	11.6	3
0	42440	11.6	1
0	42441	11.6	1
0	42676	11.65	3
0	42677	11.65	5
0	42678	11.65	3
0	42679	11.65	5
0	42680	11.65	8
0	42681	11.65	5
0	42682	11.65	3
0	42683	11.65	5
0	42684	11.65	3
0	42685	11.65	1
0	42686	11.65	1
0	43005	11.7	3
0	43006	11.7	5
0	43007	11.7	3
0	43008	11.7	5
0	43009	11.7	8
0	43010	11.7	5
0	43011	11.7	3
0	43012	11.7	5
0	43013	11.7	3
0	43014	11.7	1
0	43015	11.7	1
0	43016	11.7	3
0	43017	11.7	5
0	43018	11.7	3
0	43019	11.7	5
0	43020	11.7	8
0	43021	11.7	5
0	43022	11.7	3
0	43023	11.7	5
0	43024	11.7	3
0	43025	11.7	1
0	43026	11.7	1
0	43269	11.75	3
0	43270	11.75	5
0	43271	11.75	3
0	43272	11.75	5
0	43273	11.75	8
0	43274	11.75	5
0	43275	11.75	3
0	43276	11.75	5
0	43277	11.75	3
0	43278	11.75	1
0	43279	11.75	1
0	43413	11.8	3
0	43414	11.8	5
0	43415	11.8	3
0	43416	11.8	5
0	43417	11.8	8
0	43418	11.8	5
0	43419	11.8	3
0	43420	11.8	5
0	43421	11.8	3
0	43422	11.8	1
0	43423	11.8	1
0	43424	11.8	3
0	43425	11.8	5
0	43426	11.8	3
0	43427	11.8	5
0	43428	11.8	8
0	43429	11.8	5
0	43430	11.8	3
0	43431	11.8	5
0	43432	11.8	3
0	43433	11.8	1
0	43434	11.8	1
0	43568	11.85	3
0	43569	11.85	5
0	43570	11.85	3
0	43571	11.85	5
0	43572	11.85	8
0	43573	11.85	5
0	43574	11.85	3
0	43575	11.85	5
0	43576	11.85	3
0	43577	11.85	1
0	43578	11.85	1
0	43672	11.9	3
0	43673	11.9	5
0	43674	11.9	3
0	43675	11.9	5
0	43676	11.9	8
0	43677	11.9	5
0	43678	11.9	3
0	43679	11.9	5
0	43680	11.9	3
0	43681	11.9	1
0	43682	11.9	1
0	43683	11.9	3
0	43684	11.9	5
0	43685	11.9	3
0	43686	11.9	5
0	43687	11.9	8
0	43688	11.9	5
0	43689	11.9	3
0	43690	11.9	5
0	43691	11.9	3
0	43692	11.9	1
0	43693	11.9	1
0	43827	11.95	3
0	43828	11.95	5
0	43829	11.95	3
0	43830	11.95	5
0	43831	11.95	8
0	43832	11.95	5
0	43833	11.95	3
0	43834	11.95	5
0	43835	11.95	3
0	43836	11.95	1
0	43837	11.95	1
0	43992	12	3
0	43993	12	5
0	43994	12	3
0	43995	12	5
0	43996	12	8
0	43997	12	5
0	43998	12	3
0	43999	12	5
0	44000	12	3
0	44001	12	1
0	44002	12	1
0	44003	12	3
0	44004	12	5
0	44005	12	3
0	44006	12	5
0	44007	12	8
0	44008	12	5
0	44009	12	3
0	44010	12	5
0	44011	12	3
0	44012	12	1
0	44013	12	1
0	44206	12.05	3
0	44207	12.05	5
0	44208	12.05	3
0	44209	12.05	5
0	44210	12.05	8
0	44211	12.05	5
0	44212	12.05	3
0	44213	12.05	5
0	44214	12.05	3
0	44215	12.05	1
0	44216	12.05	1
0	44413	12.1	3
0	44414	12.1	5
0	44415	12.1	3
0	44416	12.1	5
0	44417	12.1	8
0	44418	12.1	5
0	44419	12.1	3
0	44420	12.1	5
0	44421	12.1	3
0	44422	12.1	1
0	44423	12.1	1
0	44424	12.1	3
0	44425	12.1	5
0	44426	12.1	3
0	44427	12.1	5
0	44428	12.1	8
0	44429	12.1	5
0	44430	12.1	3
0	44431	12.1	5
0	44432	12.1	3
0	44433	12.1	1
0	44434	12.1	1
0	44912	12.15	3
0	44913	12.15	5
0	44914	12.15	3
0	44915	12.15	5
0	44916	12.15	8
0	44917	12.15	5
0	44918	12.15	3
0	44919	12.15	5
0	44920	12.15	3
0	44921	12.15	1
0	44922	12.15	1
0	45142	12.2	3
0	45143	12.2	5
0	45144	12.2	3
0	45145	12.2	5
0	45146	12.2	8
0	45147	12.2	5
0	45148	12.2	3
0	45149	12.2	5
0	45150	12.2	3
0	45151	12.2	1
0	45152	12.2	1
0	45153	12.2	3
0	45154	12.2	5
0	45155	12.2	3
0	45156	12.2	5
0	45157	12.2	8
0	45158	12.2	5
0	45159	12.2	3
0	45160	12.2	5
0	45161	12.2	3
0	45162	12.2	1
0	45163	12.2	1
0	45516	12.25	3
0	45517	12.25	5
0	45518	12.25	3
0	45519	12.25	5
0	45520	12.25	8
0	45521	12.25	5
0	45522	12.25	3
0	45523	12.25	5
0	45524	12.25	3
0	45525	12.25	1
0	45526	12.25	1
0	45712	12.3	3
0	45713	12.3	5
0	45714	12.3	3
0	45715	12.3	5
0	45716	12.3	8
0	45717	12.3	5
0	45718	12.3	3
0	45719	12.3	5
0	45720	12.3	3
0	45721	12.3	1
0	45722	12.3	1
0	45723	12.3	3
0	45724	12.3	5
0	45725	12.3	3
0	45726	12.3	5
0	45727	12.3	8
0	45728	12.3	5
0	45729	12.3	3
0	45730	12.3	5
0	45731	12.3	3
0	45732	12.3	1
0	45733	12.3	1
0	45905	12.35	3
0	45906	12.35	5
0	45907	12.35	3
0	45908	12.35	5
0	45909	12.35	8
0	45910	12.35	5
0	45911	12.35	3
0	45912	12.35	5
0	45913	12.35	3
0	45914	12.35	1
0	45915	12.35	1
0	46027	12.4	3
0	46028	12.4	5
0	46029	12.4	3
0	46030	12.4	5
0	46031	12.4	8
0	46032	12.4	5
0	46033	12.4	3
0	46034	12.4	5
0	46035	12.4	3
0	46036	12.4	1
0	46037	12.4	1
0	46038	12.4	3
0	46039	12.4	5
0	46040	12.4	3
0	46041	12.4	5
0	46042	12.4	8
0	46043	12.4	5
0	46044	12.4	3
0	46045	12.4	5
0	46046	12.4	3
0	46047	12.4	1
0	46048	12.4	1
0	46159	12.45	3
0	46160	12.45	5
0	46161	12.45	3
0	46162	12.45	5
0	46163	12.45	8
0	46164	12.45	5
0	46165	12.45	3
0	46166	12.45	5
0	46167	12.45	3
0	46168	12.45	1
0	46169	12.45	1
0	46258	12.5	3
0	46259	12.5	5
0	46260	12.5	3
0	46261	12.5	5
0	46262	12.5	8
0	46263	12.5	5
0	46264	12.5	3
0	46265	12.5	5
0	46266	12.5	3
0	46267	12.5	1
0	46268	12.5	1
0	46269	12.5	3
0	46270	12.5	5
0	46271	12.5	3
0	46272	12.5	5
0	46273	12.5	8
0	46274	12.5	5
0	46275	12.5	3
0	46276	12.5	5
0	46277	12.5	3
0	46278	12.5	1
0	46279	12.5	1
0	46435	12.55	3
0	46436	12.55	5
0	46437	12.55	3
0	46438	12.55	5
0	46439	12.55	8
0	46440	12.55	5
0	46441	12.55	3
0	46442	12.55	5
0	46443	12.55	3
0	46444	12.55	1
0	46445	12.55	1
0	46633	12.6	3
0	46634	12.6	5
0	46635	12.6	3
0	46636	12.6	5
0	46637	12.6	8
0	46638	12.6	5
0	46639	12.6	3
0	46640	12.6	5
0	46641	12.6	3
0	46642	12.6	1
0	46643	12.6	1
0	46644	12.6	3
0	46645	12.6	5
0	46646	12.6	3
0	46647	12.6	5
0	46648	12.6	8
0	46649	12.6	5
0	46650	12.6	3
0	46651	12.6	5
0	46652	12.6	3
0	46653	12.6	1
0	46654	12.6	1
0	46821	12.65	3
0	46822	12.65	5
0	46823	12.65	3
0	46824	12.65	5
0	46825	12.65	8
0	46826	12.65	5
0	46827	12.65	3
0	46828	12.65	5
0	46829	12.65	3
0	46830	12.65	1
0	46831	12.65	1
0	47110	12.7	3
0	47111	12.7	5
0	47112	12.7	3
0	47113	12.7	5
0	47114	12.7	8
0	47115	12.7	5
0	47116	12.7	3
0	47117	12.7	5
0	47118	12.7	3
0	47119	12.7	1
0	47120	12.7	1
0	47121	12.7	3
0	47122	12.7	5
0	47123	12.7	3
0	47124	12.7	5
0	47125	12.7	8
0	47126	12.7	5
0	47127	12.7	3
0	47128	12.7	5
0	47129	12.7	3
0	47130	12.7	1
0	47131	12.7	1
0	47319	12.75	3
0	47320	12.75	5
0	47321	12.75	3
0	47322	12.75	5
0	47323	12.75	8
0	47324	12.75	5
0	47325	12.75	3
0	47326	12.75	5
0	47327	12.75	3
0	47328	12.75	1
0	47329	12.75	1
0	47611	12.8	3
0	47612	12.8	5
0	47613	12.8	3
0	47614	12.8	5
0	47615	12.8	8
0	47616	12.8	5
0	47617	12.8	3
0	47618	12.8	5
0	47619	12.8	3
0	47620	12.8	1
0	47621	12.8	1
0	47622	12.8	3
0	47623	12.8	5
0	47624	12.8	3
0	47625	12.8	5
0	47626	12.8	8
0	47627	12.8	5
0	47628	12.8	3
0	47629	12.8	5
0	47630	12.8	3
0	47631	12.8	1
0	47632	12.8	1
0	47783	12.85	3
0	47784	12.85	5
0	47785	12.85	3
0	47786	12.85	5
0	47787	12.85	8
0	47788	12.85	5
0	47789	12.85	3
0	47790	12.85	5
0	47791	12.85	3
0	47792	12.85	1
0	47793	12.85	1
0	47928	12.9	3
0	47929	12.9	5
0	47930	12.9	3
0	47931	12.9	5
0	47932	12.9	8
0	47933	12.9	5
0	47934	12.9	3
0	47935	12.9	5
0	47936	12.9	3
0	47937	12.9	1
0	47938	12.9	1
0	47939	12.9	3
0	47940	12.9	5
0	47941	12.9	3
0	47942	12.9	5
0	47943	12.9	8
0	47944	12.9	5
0	47945	12.9	3
0	47946	12.9	5
0	47947	12.9	3
0	47948	12.9	1
0	47949	12.9	1
0	48083	12.95	3
0	48084	12.95	5
0	48085	12.95	3
0	48086	12.95	5
0	48087	12.95	8
0	48088	12.95	5
0	48089	12.95	3
0	48090	12.95	5
0	48091	12.95	3
0	48092	12.95	1
0	48093	12.95	1
0	48216	13	3
0	48217	13	5
0	48218	13	3
0	48219	13	5
0	48220	13	8
0	48221	13	5
0	48222	13	3
0	48223	13	5
0	48224	13	3
0	48225	13	1
0	48226	13	1
0	48227	13	3
0	48228	13	5
0	48229	13	3
0	48230	13	5
0	48231	13	8
0	48232	13	5
0	48233	13	3
0	48234	13	5
0	48235	13	3
0	48236	13	1
0	48237	13	1
0	48348	13.05	3
0	48349	13.05	5
0	48350	13.05	3
0	48351	13.05	5
0	48352	13.05	8
0	48353	13.05	5
0	48354	13.05	3
0	48355	13.05	5
0	48356	13.05	3
0	48357	13.05	1
0	48358	13.05	1
0	48458	13.1	3
0	48459	13.1	5
0	48460	13.1	3
0	48461	13.1	5
0	48462	13.1	8
0	48463	13.1	5
0	48464	13.1	3
0	48465	13.1	5
0	48466	13.1	3
0	48467	13.1	1
0	48468	13.1	1
0	48469	13.1	3
0	48470	13.1	5
0	48471	13.1	3
0	48472	13.1	5
0	48473	13.1	8
0	48474	13.1	5
0	48475	13.1	3
0	48476	13.1	5
0	48477	13.1	3
0	48478	13.1	1
0	48479	13.1	1
0	48718	13.15	3
0	48719	13.15	5
0	48720	13.15	3
0	48721	13.15	5
0	48722	13.15	8
0	48723	13.15	5
0	48724	13.15	3
0	48725	13.15	5
0	48726	13.15	3
0	48727	13.15	1
0	48728	13.15	1
0	48886	13.2	3
0	48887	13.2	5
0	48888	13.2	3
0	48889	13.2	5
0	48890	13.2	8
0	48891	13.2	5
0	48892	13.2	3
0	48893	13.2	5
0	48894	13.2	3
0	48895	13.2	1
0	48896	13.2	1
0	48897	13.2	3
0	48898	13.2	5
0	48899	13.2	3
0	48900	13.2	5
0	48901	13.2	8
0	48902	13.2	5
0	48903	13.2	3
0	48904	13.2	5
0	48905	13.2	3
0	48906	13.2	1
0	48907	13.2	1
0	49158	13.25	3
0	49159	13.25	5
0	49160	13.25	3
0	49161	13.25	5
0	49162	13.25	8
0	49163	13.25	5
0	49164	13.25	3
0	49165	13.25	5
0	49166	13.25	3
0	49167	13.25	1
0	49168	13.25	1
0	49297	13.3	3
0	49298	13.3	5
0	49299	13.3	3
0	49300	13.3	5
0	49301	13.3	8
0	49302	13.3	5
0	49303	13.3	3
0	49304	13.3	5
0	49305	13.3	3
0	49306	13.3	1
0	49307	13.3	1
0	49308	13.3	3
0	49309	13.3	5
0	49310	13.3	3
0	49311	13.3	5
0	49312	13.3	8
0	49313	13.3	5
0	49314	13.3	3
0	49315	13.3	5
0	49316	13.3	3
0	49317	13.3	1
0	49318	13.3	1
0	49618	13.35	3
0	49619	13.35	5
0	49620	13.35	3
0	49621	13.35	5
0	49622	13.35	8
0	49623	13.35	5
0	49624	13.35	3
0	49625	13.35	5
0	49626	13.35	3
0	49627	13.35	1
0	49628	13.35	1
0	49748	13.4	3
0	49749	13.4	5
0	49750	13.4	3
0	49751	13.4	5
0	49752	13.4	8
0	49753	13.4	5
0	49754	13.4	3
0	49755	13.4	5
0	49756	13.4	3
0	49757	13.4	1
0	49758	13.4	1
0	49759	13.4	3
0	49760	13.4	5
0	49761	13.4	3
0	49762	13.4	5
0	49763	13.4	8
0	49764	13.4	5
0	49765	13.4	3
0	49766	13.4	5
0	49767	13.4	3
0	49768	13.4	1
0	49769	13.4	1
0	49903	13.45	3
0	49904	13.45	5
0	49905	13.45	3
0	49906	13.45	5
0	49907	13.45	8
0	49908	13.45	5
0	49909	13.45	3
0	49910	13.45	5
0	49911	13.45	3
0	49912	13.45	1
0	49913	13.45	1
0	50048	13.5	3
0	50049	13.5	5
0	50050	13.5	3
0	50051	13.5	5
0	50052	13.5	8
0	50053	13.5	5
0	50054	13.5	3
0	50055	13.5	5
0	50056	13.5	3
0	50057	13.5	1
0	50058	13.5	1
0	50059	13.5	3
0	50060	13.5	5
0	50061	13.5	3
0	50062	13.5	5
0	50063	13.5	8
0	50064	13.5	5
0	50065	13.5	3
0	50066	13.5	5
0	50067	13.5	3
0	50068	13.5	1
0	50069	13.5	1
0	50285	13.55	3
0	50286	13.55	5
0	50287	13.55	3
0	50288	13.55	5
0	50289	13.55	8
0	50290	13.55	5
0	50291	13.55	3
0	50292	13.55	5
0	50293	13.55	3
0	50294	13.55	1
0	50295	13.55	1
0	50428	13.6	3
0	50429	13.6	5
0	50430	13.6	3
0	50431	13.6	5
0	50432	13.6	8
0	50433	13.6	5
0	50434	13.6	3
0	50435	13.6	5
0	50436	13.6	3
0	50437	13.6	1
0	50438	13.6	1
0	50439	13.6	3
0	50440	13.6	5
0	50441	13.6	3
0	50442	13.6	5
0	50443	13.6	8
0	50444	13.6	5
0	50445	13.6	3
0	50446	13.6	5
0	50447	13.6	3
0	50448	13.6	1
0	50449	13.6	1
0	50579	13.65	3
0	50580	13.65	5
0	50581	13.65	3
0	50582	13.65	5
0	50583	13.65	8
0	50584	13.65	5
0	50585	13.65	3
0	50586	13.65	5
0	50587	13.65	3
0	50588	13.65	1
0	50589	13.65	1
0	50810	13.7	3
0	50811	13.7	5
0	50812	13.7	3
0	50813	13.7	5
0	50814	13.7	8
0	50815	13.7	5
0	50816	13.7	3
0	50817	13.7	5
0	50818	13.7	3
0	50819	13.7	1
0	50820	13.7	1
0	50821	13.7	3
0	50822	13.7	5
0	50823	13.7	3
0	50824	13.7	5
0	50825	13.7	8
0	50826	13.7	5
0	50827	13.7	3
0	50828	13.7	5
0	50829	13.7	3
0	50830	13.7	1
0	50831	13.7	1
0	51074	13.75	3
0	51075	13.75	5
0	51076	13.75	3
0	51077	13.75	5
0	51078	13.75	8
0	51079	13.75	5
0	51080	13.75	3
0	51081	13.75	5
0	51082	13.75	3
0	51083	13.75	1
0	51084	13.75	1
0	51307	13.8	3
0	51308	13.8	5
0	51309	13.8	3
0	51310	13.8	5
0	51311	13.8	8
0	51312	13.8	5
0	51313	13.8	3
0	51314	13.8	5
0	51315	13.8	3
0	51316	13.8	1
0	51317	13.8	1
0	51318	13.8	3
0	51319	13.8	5
0	51320	13.8	3
0	51321	13.8	5
0	51322	13.8	8
0	51323	13.8	5
0	51324	13.8	3
0	51325	13.8	5
0	51326	13.8	3
0	51327	13.8	1
0	51328	13.8	1
0	51502	13.85	3
0	51503	13.85	5
0	51504	13.85	3
0	51505	13.85	5
0	51506	13.85	8
0	51507	13.85	5
0	51508	13.85	3
0	51509	13.85	5
0	51510	13.85	3
0	51511	13.85	1
0	51512	13.85	1
0	51829	13.9	3
0	51830	13.9	5
0	51831	13.9	3
0	51832	13.9	5
0	51833	13.9	8
0	51834	13.9	5
0	51835	13.9	3
0	51836	13.9	5
0	51837	13.9	3
0	51838	13.9	1
0	51839	13.9	1
0	51840	13.9	3
0	51841	13.9	5
0	51842	13.9	3
0	51843	13.9	5
0	51844	13.9	8
0	51845	13.9	5
0	51846	13.9	3
0	51847	13.9	5
0	51848	13.9	3
0	51849	13.9	1
0	51850	13.9	1
0	51984	13.95	3
0	51985	13.95	5
0	51986	13.95	3
0	51987	13.95	5
0	51988	13.95	8
0	51989	13.95	5
0	51990	13.95	3
0	51991	13.95	5
0	51992	13.95	3
0	51993	13.95	1
0	51994	13.95	1
0	52163	14	3
0	52164	14	5
0	52165	14	3
0	52166	14	5
0	52167	14	8
0	52168	14	5
0	52169	14	3
0	52170	14	5
0	52171	14	3
0	52172	14	1
0	52173	14	1
0	52174	14	3
0	52175	14	5
0	52176	14	3
0	52177	14	5
0	52178	14	8
0	52179	14	5
0	52180	14	3
0	52181	14	5
0	52182	14	3
0	52183	14	1
0	52184	14	1
0	52366	14.05	3
0	52367	14.05	5
0	52368	14.05	3
0	52369	14.05	5
0	52370	14.05	8
0	52371	14.05	5
0	52372	14.05	3
0	52373	14.05	5
0	52374	14.05	3
0	52375	14.05	1
0	52376	14.05	1
0	52537	14.1	3
0	52538	14.1	5
0	52539	14.1	3
0	52540	14.1	5
0	52541	14.1	8
0	52542	14.1	5
0	52543	14.1	3
0	52544	14.1	5
0	52545	14.1	3
0	52546	14.1	1
0	52547	14.1	1
0	52548	14.1	3
0	52549	14.1	5
0	52550	14.1	3
0	52551	14.1	5
0	52552	14.1	8
0	52553	14.1	5
0	52554	14.1	3
0	52555	14.1	5
0	52556	14.1	3
0	52557	14.1	1
0	52558	14.1	1
0	52727	14.15	3
0	52728	14.15	5
0	52729	14.15	3
0	52730	14.15	5
0	52731	14.15	8
0	52732	14.15	5
0	52733	14.15	3
0	52734	14.15	5
0	52735	14.15	3
0	52736	14.15	1
0	52737	14.15	1
0	52856	14.2	3
0	52857	14.2	5
0	52858	14.2	3
0	52859	14.2	5
0	52860	14.2	8
0	52861	14.2	5
0	52862	14.2	3
0	52863	14.2	5
0	52864	14.2	3
0	52865	14.2	1
0	52866	14.2	1
0	52867	14.2	3
0	52868	14.2	5
0	52869	14.2	3
0	52870	14.2	5
0	52871	14.2	8
0	52872	14.2	5
0	52873	14.2	3
0	52874	14.2	5
0	52875	14.2	3
0	52876	14.2	1
0	52877	14.2	1
0	53103	14.25	3
0	53104	14.25	5
0	53105	14.25	3
0	53106	14.25	5
0	53107	14.25	8
0	53108	14.25	5
0	53109	14.25	3
0	53110	14.25	5
0	53111	14.25	3
0	53112	14.25	1
0	53113	14.25	1
0	53322	14.3	3
0	53323	14.3	5
0	53324	14.3	3
0	53325	14.3	5
0	53326	14.3	8
0	53327	14.3	5
0	53328	14.3	3
0	53329	14.3	5
0	53330	14.3	3
0	53331	14.3	1
0	53332	14.3	1
0	53333	14.3	3
0	53334	14.3	5
0	53335	14.3	3
0	53336	14.3	5
0	53337	14.3	8
0	53338	14.3	5
0	53339	14.3	3
0	53340	14.3	5
0	53341	14.3	3
0	53342	14.3	1
0	53343	14.3	1
0	53590	14.35	3
0	53591	14.35	5
0	53592	14.35	3
0	53593	14.35	5
0	53594	14.35	8
0	53595	14.35	5
0	53596	14.35	3
0	53597	14.35	5
0	53598	14.35	3
0	53599	14.35	1
0	53600	14.35	1
0	53734	14.4	3
0	53735	14.4	5
0	53736	14.4	3
0	53737	14.4	5
0	53738	14.4	8
0	53739	14.4	5
0	53740	14.4	3
0	53741	14.4	5
0	53742	14.4	3
0	53743	14.4	1
0	53744	14.4	1
0	53745	14.4	3
0	53746	14.4	5
0	53747	14.4	3
0	53748	14.4	5
0	53749	14.4	8
0	53750	14.4	5
0	53751	14.4	3
0	53752	14.4	5
0	53753	14.4	3
0	53754	14.4	1
0	53755	14.4	1
0	54105	14.45	3
0	54106	14.45	5
0	54107	14.45	3
0	54108	14.45	5
0	54109	14.45	8
0	54110	14.45	5
0	54111	14.45	3
0	54112	14.45	5
0	54113	14.45	3
0	54114	14.45	1
0	54115	14.45	1
0	54277	14.5	3
0	54278	14.5	5
0	54279	14.5	3
0	54280	14.5	5
0	54281	14.5	8
0	54282	14.5	5
0	54283	14.5	3
0	54284	14.5	5
0	54285	14.5	3
0	54286	14.5	1
0	54287	14.5	1
0	54288	14.5	3
0	54289	14.5	5
0	54290	14.5	3
0	54291	14.5	5
0	54292	14.5	8
0	54293	14.5	5
0	54294	14.5	3
0	54295	14.5	5
0	54296	14.5	3
0	54297	14.5	1
0	54298	14.5	1
0	54468	14.55	3
0	54469	14.55	5
0	54470	14.55	3
0	54471	14.55	5
0	54472	14.55	8
0	54473	14.55	5
0	54474	14.55	3
0	54475	14.55	5
0	54476	14.55	3
0	54477	14.55	1
0	54478	14.55	1
0	54695	14.6	3
0	54696	14.6	5
0	54697	14.6	3
0	54698	14.6	5
0	54699	14.6	8
0	54700	14.6	5
0	54701	14.6	3
0	54702	14.6	5
0	54703	14.6	3
0	54704	14.6	1
0	54705	14.6	1
0	54706	14.6	3
0	54707	14.6	5
0	54708	14.6	3
0	54709	14.6	5
0	54710	14.6	8
0	54711	14.6	5
0	54712	14.6	3
0	54713	14.6	5
0	54714	14.6	3
0	54715	14.6	1
0	54716	14.6	1
0	54913	14.65	3
0	54914	14.65	5
0	54915	14.65	3
0	54916	14.65	5
0	54917	14.65	8
0	54918	14.65	5
0	54919	14.65	3
0	54920	14.65	5
0	54921	14.65	3
0	54922	14.65	1
0	54923	14.65	1
0	55069	14.7	3
0	55070	14.7	5
0	55071	14.7	3
0	55072	14.7	5
0	55073	14.7	8
0	55074	14.7	5
0	55075	14.7	3
0	55076	14.7	5
0	55077	14.7	3
0	55078	14.7	1
0	55079	14.7	1
0	55080	14.7	3
0	55081	14.7	5
0	55082	14.7	3
0	55083	14.7	5
0	55084	14.7	8
0	55085	14.7	5
0	55086	14.7	3
0	55087	14.7	5
0	55088	14.7	3
0	55089	14.7	1
0	55090	14.7	1
0	55204	14.75	3
0	55205	14.75	5
0	55206	14.75	3
0	55207	14.75	5
0	55208	14.75	8
0	55209	14.75	5
0	55210	14.75	3
0	55211	14.75	5
0	55212	14.75	3
0	55213	14.75	1
0	55214	14.75	1
0	55418	14.8	3
0	55419	14.8	5
0	55420	14.8	3
0	55421	14.8	5
0	55422	14.8	8
0	55423	14.8	5
0	55424	14.8	3
0	55425	14.8	5
0	55426	14.8	3
0	55427	14.8	1
0	55428	14.8	1
0	55429	14.8	3
0	55430	14.8	5
0	55431	14.8	3
0	55432	14.8	5
0	55433	14.8	8
0	55434	14.8	5
0	55435	14.8	3
0	55436	14.8	5
0	55437	14.8	3
0	55438	14.8	1
0	55439	14.8	1
0	55668	14.85	3
0	55669	14.85	5
0	55670	14.85	3
0	55671	14.85	5
0	55672	14.85	8
0	55673	14.85	5
0	55674	14.85	3
0	55675	14.85	5
0	55676	14.85	3
0	55677	14.85	1
0	55678	14.85	1
0	55882	14.9	3
0	55883	14.9	5
0	55884	14.9	3
0	55885	14.9	5
0	55886	14.9	8
0	55887	14.9	5
0	55888	14.9	3
0	55889	14.9	5
0	55890	14.9	3
0	55891	14.9	1
0	55892	14.9	1
0	55893	14.9	3
0	55894	14.9	5
0	55895	14.9	3
0	55896	14.9	5
0	55897	14.9	8
0	55898	14.9	5
0	55899	14.9	3
0	55900	14.9	5
0	55901	14.9	3
0	55902	14.9	1
0	55903	14.9	1
0	56060	14.95	3
0	56061	14.95	5
0	56062	14.95	3
0	56063	14.95	5
0	56064	14.95	8
0	56065	14.95	5
0	56066	14.95	3
0	56067	14.95	5
0	56068	14.95	3
0	56069	14.95	1
0	56070	14.95	1
0	56350	15	3
0	56351	15	5
0	56352	15	3
0	56353	15	5
0	56354	15	8
0	56355	15	5
0	56356	15	3
0	56357	15	5
0	56358	15	3
0	56359	15	1
0	56360	15	1
0	56361	15	3
0	56362	15	5
0	56363	15	3
0	56364	15	5
0	56365	15	8
0	56366	15	5
0	56367	15	3
0	56368	15	5
0	56369	15	3
0	56370	15	1
0	56371	15	1
0	56547	15.05	3
0	56548	15.05	5
0	56549	15.05	3
0	56550	15.05	5
0	56551	15.05	8
0	56552	15.05	5
0	56553	15.05	3
0	56554	15.05	5
0	56555	15.05	3
0	56556	15.05	1
0	56557	15.05	1
0	56662	15.1	3
0	56663	15.1	5
0	56664	15.1	3
0	56665	15.1	5
0	56666	15.1	8
0	56667	15.1	5
0	56668	15.1	3
0	56669	15.1	5
0	56670	15.1	3
0	56671	15.1	1
0	56672	15.1	1
0	56673	15.1	3
0	56674	15.1	5
0	56675	15.1	3
0	56676	15.1	5
0	56677	15.1	8
0	56678	15.1	5
0	56679	15.1	3
0	56680	15.1	5
0	56681	15.1	3
0	56682	15.1	1
0	56683	15.1	1
0	56840	15.15	3
0	56841	15.15	5
0	56842	15.15	3
0	56843	15.15	5
0	56844	15.15	8
0	56845	15.15	5
0	56846	15.15	3
0	56847	15.15	5
0	56848	15.15	3
0	56849	15.15	1
0	56850	15.15	1
0	57023	15.2	3
0	57024	15.2	5
0	57025	15.2	3
0	57026	15.2	5
0	57027	15.2	8
0	57028	15.2	5
0	57029	15.2	3
0	57030	15.2	5
0	57031	15.2	3
0	57032	15.2	1
0	57033	15.2	1
0	57034	15.2	3
0	57035	15.2	5
0	57036	15.2	3
0	57037	15.2	5
0	57038	15.2	8
0	57039	15.2	5
0	57040	15.2	3
0	57041	15.2	5
0	57042	15.2	3
0	57043	15.2	1
0	57044	15.2	1
0	57196	15.25	3
0	57197	15.25	5
0	57198	15.25	3
0	57199	15.25	5
0	57200	15.25	8
0	57201	15.25	5
0	57202	15.25	3
0	57203	15.25	5
0	57204	15.25	3
0	57205	15.25	1
0	57206	15.25	1
0	57300	15.3	3
0	57301	15.3	5
0	57302	15.3	3
0	57303	15.3	5
0	57304	15.3	8
0	57305	15.3	5
0	57306	15.3	3
0	57307	15.3	5
0	57308	15.3	3
0	57309	15.3	1
0	57310	15.3	1
0	57311	15.3	3
0	57312	15.3	5
0	57313	15.3	3
0	57314	15.3	5
0	57315	15.3	8
0	57316	15.3	5
0	57317	15.3	3
0	57318	15.3	5
0	57319	15.3	3
0	57320	15.3	1
0	57321	15.3	1
0	57524	15.35	3
0	57525	15.35	5
0	57526	15.35	3
0	57527	15.35	5
0	57528	15.35	8
0	57529	15.35	5
0	57530	15.35	3
0	57531	15.35	5
0	57532	15.35	3
0	57533	15.35	1
0	57534	15.35	1
0	57713	15.4	3
0	57714	15.4	5
0	57715	15.4	3
0	57716	15.4	5
0	57717	15.4	8
0	57718	15.4	5
0	57719	15.4	3
0	57720	15.4	5
0	57721	15.4	3
0	57722	15.4	1
0	57723	15.4	1
0	57724	15.4	3
0	57725	15.4	5
0	57726	15.4	3
0	57727	15.4	5
0	57728	15.4	8
0	57729	15.4	5
0	57730	15.4	3
0	57731	15.4	5
0	57732	15.4	3
0	57733	15.4	1
0	57734	15.4	1
0	57981	15.45	3
0	57982	15.45	5
0	57983	15.45	3
0	57984	15.45	5
0	57985	15.45	8
0	57986	15.45	5
0	57987	15.45	3
0	57988	15.45	5
0	57989	15.45	3
0	57990	15.45	1
0	57991	15.45	1
0	58103	15.5	3
0	58104	15.5	5
0	58105	15.5	3
0	58106	15.5	5
0	58107	15.5	8
0	58108	15.5	5
0	58109	15.5	3
0	58110	15.5	5
0	58111	15.5	3
0	58112	15.5	1
0	58113	15.5	1
0	58114	15.5	3
0	58115	15.5	5
0	58116	15.5	3
0	58117	15.5	5
0	58118	15.5	8
0	58119	15.5	5
0	58120	15.5	3
0	58121	15.5	5
0	58122	15.5	3
0	58123	15.5	1
0	58124	15.5	1
0	58431	15.55	3
0	58432	15.55	5
0	58433	15.55	3
0	58434	15.55	5
0	58435	15.55	8
0	58436	15.55	5
0	58437	15.55	3
0	58438	15.55	5
0	58439	15.55	3
0	58440	15.55	1
0	58441	15.55	1
0	58581	15.6	3
0	58582	15.6	5
0	58583	15.6	3
0	58584	15.6	5
0	58585	15.6	8
0	58586	15.6	5
0	58587	15.6	3
0	58588	15.6	5
0	58589	15.6	3
0	58590	15.6	1
0	58591	15.6	1
0	58592	15.6	3
0	58593	15.6	5
0	58594	15.6	3
0	58595	15.6	5
0	58596	15.6	8
0	58597	15.6	5
0	58598	15.6	3
0	58599	15.6	5
0	58600	15.6	3
0	58601	15.6	1
0	58602	15.6	1
0	58713	15.65	3
0	58714	15.65	5
0	58715	15.65	3
0	58716	15.65	5
0	58717	15.65	8
0	58718	15.65	5
0	58719	15.65	3
0	58720	15.65	5
0	58721	15.65	3
0	58722	15.65	1
0	58723	15.65	1
0	58858	15.7	3
0	58859	15.7	5
0	58860	15.7	3
0	58861	15.7	5
0	58862	15.7	8
0	58863	15.7	5
0	58864	15.7	3
0	58865	15.7	5
0	58866	15.7	3
0	58867	15.7	1
0	58868	15.7	1
0	58869	15.7	3
0	58870	15.7	5
0	58871	15.7	3
0	58872	15.7	5
0	58873	15.7	8
0	58874	15.7	5
0	58875	15.7	3
0	58876	15.7	5
0	58877	15.7	3
0	58878	15.7	1
0	58879	15.7	1
0	59070	15.75	3
0	59071	15.75	5
0	59072	15.75	3
0	59073	15.75	5
0	59074	15.75	8
0	59075	15.75	5
0	59076	15.75	3
0	59077	15.75	5
0	59078	15.75	3
0	59079	15.75	1
0	59080	15.75	1
0	59177	15.8	3
0	59178	15.8	5
0	59179	15.8	3
0	59180	15.8	5
0	59181	15.8	8
0	59182	15.8	5
0	59183	15.8	3
0	59184	15.8	5
0	59185	15.8	3
0	59186	15.8	1
0	59187	15.8	1
0	59188	15.8	3
0	59189	15.8	5
0	59190	15.8	3
0	59191	15.8	5
0	59192	15.8	8
0	59193	15.8	5
0	59194	15.8	3
0	59195	15.8	5
0	59196	15.8	3
0	59197	15.8	1
0	59198	15.8	1
0	59332	15.85	3
0	59333	15.85	5
0	59334	15.85	3
0	59335	15.85	5
0	59336	15.85	8
0	59337	15.85	5
0	59338	15.85	3
0	59339	15.85	5
0	59340	15.85	3
0	59341	15.85	1
0	59342	15.85	1
0	59525	15.9	3
0	59526	15.9	5
0	59527	15.9	3
0	59528	15.9	5
0	59529	15.9	8
0	59530	15.9	5
0	59531	15.9	3
0	59532	15.9	5
0	59533	15.9	3
0	59534	15.9	1
0	59535	15.9	1
0	59536	15.9	3
0	59537	15.9	5
0	59538	15.9	3
0	59539	15.9	5
0	59540	15.9	8
0	59541	15.9	5
0	59542	15.9	3
0	59543	15.9	5
0	59544	15.9	3
0	59545	15.9	1
0	59546	15.9	1
0	59747	15.95	3
0	59748	15.95	5
0	59749	15.95	3
0	59750	15.95	5
0	59751	15.95	8
0	59752	15.95	5
0	59753	15.95	3
0	59754	15.95	5
0	59755	15.95	3
0	59756	15.95	1
0	59757	15.95	1
0	59986	16	3
0	59987	16	5
0	59988	16	3
0	59989	16	5
0	59990	16	8
0	59991	16	5
0	59992	16	3
0	59993	16	5
0	59994	16	3
0	59995	16	1
0	59996	16	1
0	59997	16	3
0	59998	16	5
0	59999	16	3
0	60000	16	5
0	60001	16	8
0	60002	16	5
0	60003	16	3
0	60004	16	5
0	60005	16	3
0	60006	16	1
0	60007	16	1
0	60164	16.05	3
0	60165	16.05	5
0	60166	16.05	3
0	60167	16.05	5
0	60168	16.05	8
0	60169	16.05	5
0	60170	16.05	3
0	60171	16.05	5
0	60172	16.05	3
0	60173	16.05	1
0	60174	16.05	1
0	60485	16.1	3
0	60486	16.1	5
0	60487	16.1	3
0	60488	16.1	5
0	60489	16.1	8
0	60490	16.1	5
0	60491	16.1	3
0	60492	16.1	5
0	60493	16.1	3
0	60494	16.1	1
0	60495	16.1	1
0	60496	16.1	3
0	60497	16.1	5
0	60498	16.1	3
0	60499	16.1	5
0	60500	16.1	8
0	60501	16.1	5
0	60502	16.1	3
0	60503	16.1	5
0	60504	16.1	3
0	60505	16.1	1
0	60506	16.1	1
0	60733	16.15	3
0	60734	16.15	5
0	60735	16.15	3
0	60736	16.15	5
0	60737	16.15	8
0	60738	16.15	5
0	60739	16.15	3
0	60740	16.15	5
0	60741	16.15	3
0	60742	16.15	1
[...]
0	76542	20.4	1
0	76543	20.4	3
0	76544	20.4	5
0	76545	20.4	3
0	76546	20.4	5
0	76547	20.4	8
0	76548	20.4	5
0	76549	20.4	3
0	76550	20.4	5
0	76551	20.4	3
0	76552	20.4	1
0	76553	20.4	1
0	76704	20.45	3
0	76705	20.45	5
0	76706	20.45	3
0	76707	20.45	5
0	76708	20.45	8
0	76709	20.45	5
0	76710	20.45	3
0	76711	20.45	5
0	76712	20.45	3
0	76713	20.45	1
0	76714	20.45	1
0	76893	20.5	3
0	76894	20.5	5
0	76895	20.5	3
0	76896	20.5	5
0	76897	20.5	8
0	76898	20.5	5
0	76899	20.5	3
0	76900	20.5	5
0	76901	20.5	3
0	76902	20.5	1
0	76903	20.5	1
0	76904	20.5	3
0	76905	20.5	5
0	76906	20.5	3
0	76907	20.5	5
0	76908	20.5	8
0	76909	20.5	5
0	76910	20.5	3
0	76911	20.5	5
0	76912	20.5	3
0	76913	20.5	1
0	76914	20.5	1
0	77101	20.55	3
0	77102	20.55	5
0	77103	20.55	3
0	77104	20.55	5
0	77105	20.55	8
0	77106	20.55	5
0	77107	20.55	3
0	77108	20.55	5
0	77109	20.55	3
0	77110	20.55	1
0	77111	20.55	1
0	77219	20.6	3
0	77220	20.6	5
0	77221	20.6	3
0	77222	20.6	5
0	77223	20.6	8
0	77224	20.6	5
0	77225	20.6	3
0	77226	20.6	5
0	77227	20.6	3
0	77228	20.6	1
0	77229	20.6	1
0	77230	20.6	3
0	77231	20.6	5
0	77232	20.6	3
0	77233	20.6	5
0	77234	20.6	8
0	77235	20.6	5
0	77236	20.6	3
0	77237	20.6	5
0	77238	20.6	3
0	77239	20.6	1
0	77240	20.6	1
0	77397	20.65	3
0	77398	20.65	5
0	77399	20.65	3
0	77400	20.65	5
0	77401	20.65	8
0	77402	20.65	5
0	77403	20.65	3
0	77404	20.65	5
0	77405	20.65	3
0	77406	20.65	1
0	77407	20.65	1
0	77519	20.7	3
0	77520	20.7	5
0	77521	20.7	3
0	77522	20.7	5
0	77523	20.7	8
0	77524	20.7	5
0	77525	20.7	3
0	77526	20.7	5
0	77527	20.7	3
0	77528	20.7	1
0	77529	20.7	1
0	77530	20.7	3
0	77531	20.7	5
0	77532	20.7	3
0	77533	20.7	5
0	77534	20.7	8
0	77535	20.7	5
0	77536	20.7	3
0	77537	20.7	5
0	77538	20.7	3
0	77539	20.7	1
0	77540	20.7	1
0	77651	20.75	3
0	77652	20.75	5
0	77653	20.75	3
0	77654	20.75	5
0	77655	20.75	8
0	77656	20.75	5
0	77657	20.75	3
0	77658	20.75	5
0	77659	20.75	3
0	77660	20.75	1
0	77661	20.75	1
0	77790	20.8	3
0	77791	20.8	5
0	77792	20.8	3
0	77793	20.8	5
0	77794	20.8	8
0	77795	20.8	5
0	77796	20.8	3
0	77797	20.8	5
0	77798	20.8	3
0	77799	20.8	1
0	77800	20.8	1
0	77801	20.8	3
0	77802	20.8	5
0	77803	20.8	3
0	77804	20.8	5
0	77805	20.8	8
0	77806	20.8	5
0	77807	20.8	3
0	77808	20.8	5
0	77809	20.8	3
0	77810	20.8	1
0	77811	20.8	1
0	77996	20.85	3
0	77997	20.85	5
0	77998	20.85	3
0	77999	20.85	5
0	78000	20.85	8
0	78001	20.85	5
0	78002	20.85	3
0	78003	20.85	5
0	78004	20.85	3
0	78005	20.85	1
0	78006	20.85	1
0	78118	20.9	3
0	78119	20.9	5
0	78120	20.9	3
0	78121	20.9	5
0	78122	20.9	8
0	78123	20.9	5
0	78124	20.9	3
0	78125	20.9	5
0	78126	20.9	3
0	78127	20.9	1
0	78128	20.9	1
0	78129	20.9	3
0	78130	20.9	5
0	78131	20.9	3
0	78132	20.9	5
0	78133	20.9	8
0	78134	20.9	5
0	78135	20.9	3
0	78136	20.9	5
0	78137	20.9	3
0	78138	20.9	1
0	78139	20.9	1
0	78442	20.95	3
0	78443	20.95	5
0	78444	20.95	3
0	78445	20.95	5
0	78446	20.95	8
0	78447	20.95	5
0	78448	20.95	3
0	78449	20.95	5
0	78450	20.95	3
0	78451	20.95	1
0	78452	20.95	1
0	78654	21	3
0	78655	21	5
0	78656	21	3
0	78657	21	5
0	78658	21	8
0	78659	21	5
0	78660	21	3
0	78661	21	5
0	78662	21	3
0	78663	21	1
0	78664	21	1
0	78665	21	3
0	78666	21	5
0	78667	21	3
0	78668	21	5
0	78669	21	8
0	78670	21	5
0	78671	21	3
0	78672	21	5
0	78673	21	3
0	78674	21	1
0	78675	21	1
0	78878	21.05	3
0	78879	21.05	5
0	78880	21.05	3
0	78881	21.05	5
0	78882	21.05	8
0	78883	21.05	5
0	78884	21.05	3
0	78885	21.05	5
0	78886	21.05	3
0	78887	21.05	1
0	78888	21.05	1
0	79075	21.1	3
0	79076	21.1	5
0	79077	21.1	3
0	79078	21.1	5
0	79079	21.1	8
0	79080	21.1	5
0	79081	21.1	3
0	79082	21.1	5
0	79083	21.1	3
0	79084	21.1	1
0	79085	21.1	1
0	79086	21.1	3
0	79087	21.1	5
0	79088	21.1	3
0	79089	21.1	5
0	79090	21.1	8
0	79091	21.1	5
0	79092	21.1	3
0	79093	21.1	5
0	79094	21.1	3
0	79095	21.1	1
0	79096	21.1	1
1	133	0.1	nan
1	135	0.1	nan
1	137	0.1	nan
1	139	0.1	nan
1	141	0.1	nan
1	143	0.1	nan
1	145	0.1	nan
1	147	0.1	nan
1	149	0.1	nan
1	151	0.1	nan
1	153	0.1	nan
1	2465	1.1	nan
1	2466	1.1	nan
1	2467	1.1	nan
1	2468	1.1	nan
1	2469	1.1	nan
1	2470	1.1	nan
1	2471	1.1	nan
1	2472	1.1	nan
1	2473	1.1	nan
1	2474	1.1	nan
1	2475	1.1	nan
1	6442	2.1	nan
1	6443	2.1	nan
1	6444	2.1	nan
1	6445	2.1	nan
1	6446	2.1	nan
1	6447	2.1	nan
1	6448	2.1	nan
1	6449	2.1	nan
1	6450	2.1	nan
1	6451	2.1	nan
1	6452	2.1	nan
1	10194	3.1	nan
1	10195	3.1	nan
1	10196	3.1	nan
1	10197	3.1	nan
1	10198	3.1	nan
1	10199	3.1	nan
1	10200	3.1	nan
1	10201	3.1	nan
1	10202	3.1	nan
1	10203	3.1	nan
1	10204	3.1	nan
1	14066	4.1	nan
1	14067	4.1	nan
1	14068	4.1	nan
1	14069	4.1	nan
1	14070	4.1	nan
1	14071	4.1	nan
1	14072	4.1	nan
1	14073	4.1	nan
1	14074	4.1	nan
1	14075	4.1	nan
1	14076	4.1	nan
1	17633	5.1	nan
1	17634	5.1	nan
1	17635	5.1	nan
1	17636	5.1	nan
1	17637	5.1	nan
1	17638	5.1	nan
1	17639	5.1	nan
1	17640	5.1	nan
1	17641	5.1	nan
1	17642	5.1	nan
1	17643	5.1	nan
1	21153	6.1	nan
1	21154	6.1	nan
1	21155	6.1	nan
1	21156	6.1	nan
1	21157	6.1	nan
1	21158	6.1	nan
1	21159	6.1	nan
1	21160	6.1	nan
1	21161	6.1	nan
1	21162	6.1	nan
1	21163	6.1	nan
1	24561	7.1	nan
1	24562	7.1	nan
1	24563	7.1	nan
1	24564	7.1	nan
1	24565	7.1	nan
1	24566	7.1	nan
1	24567	7.1	nan
1	24568	7.1	nan
1	24569	7.1	nan
1	24570	7.1	nan
1	24571	7.1	nan
1	28197	8.1	nan
1	28198	8.1	nan
1	28199	8.1	nan
1	28200	8.1	nan
1	28201	8.1	nan
1	28202	8.1	nan
1	28203	8.1	nan
1	28204	8.1	nan
1	28205	8.1	nan
1	28206	8.1	nan
1	28207	8.1	nan
1	31695	9.1	nan
1	31696	9.1	nan
1	31697	9.1	nan
1	31698	9.1	nan
1	31699	9.1	nan
1	31700	9.1	nan
1	31701	9.1	nan
1	31702	9.1	nan
1	31703	9.1	nan
1	31704	9.1	nan
1	31705	9.1	nan
1	35440	10.1	nan
1	35441	10.1	nan
1	35442	10.1	nan
1	35443	10.1	nan
1	35444	10.1	nan
1	35445	10.1	nan
1	35446	10.1	nan
1	35447	10.1	nan
1	35448	10.1	nan
1	35449	10.1	nan
1	35450	10.1	nan
1	39084	11.1	nan
1	39085	11.1	nan
1	39086	11.1	nan
1	39087	11.1	nan
1	39088	11.1	nan
1	39089	11.1	nan
1	39090	11.1	nan
1	39091	11.1	nan
1	39092	11.1	nan
1	39093	11.1	nan
1	39094	11.1	nan
1	44402	12.1	nan
1	44403	12.1	nan
1	44404	12.1	nan
1	44405	12.1	nan
1	44406	12.1	nan
1	44407	12.1	nan
1	44408	12.1	nan
1	44409	12.1	nan
1	44410	12.1	nan
1	44411	12.1	nan
1	44412	12.1	nan
1	48447	13.1	nan
1	48448	13.1	nan
1	48449	13.1	nan
1	48450	13.1	nan
1	48451	13.1	nan
1	48452	13.1	nan
1	48453	13.1	nan
1	48454	13.1	nan
1	48455	13.1	nan
1	48456	13.1	nan
1	48457	13.1	nan
1	52526	14.1	nan
1	52527	14.1	nan
1	52528	14.1	nan
1	52529	14.1	nan
1	52530	14.1	nan
1	52531	14.1	nan
1	52532	14.1	nan
1	52533	14.1	nan
1	52534	14.1	nan
1	52535	14.1	nan
1	52536	14.1	nan
1	56651	15.1	nan
1	56652	15.1	nan
1	56653	15.1	nan
1	56654	15.1	nan
1	56655	15.1	nan
1	56656	15.1	nan
1	56657	15.1	nan
1	56658	15.1	nan
1	56659	15.1	nan
1	56660	15.1	nan
1	56661	15.1	nan
1	60474	16.1	nan
1	60475	16.1	nan
1	60476	16.1	nan
1	60477	16.1	nan
1	60478	16.1	nan
1	60479	16.1	nan
1	60480	16.1	nan
1	60481	16.1	nan
1	60482	16.1	nan
1	60483	16.1	nan
1	60484	16.1	nan
1	64227	17.1	nan
1	64228	17.1	nan
1	64229	17.1	nan
1	64230	17.1	nan
1	64231	17.1	nan
1	64232	17.1	nan
1	64233	17.1	nan
1	64234	17.1	nan
1	64235	17.1	nan
1	64236	17.1	nan
1	64237	17.1	nan
1	67534	18.1	nan
1	67535	18.1	nan
1	67536	18.1	nan
1	67537	18.1	nan
1	67538	18.1	nan
1	67539	18.1	nan
1	67540	18.1	nan
1	67541	18.1	nan
1	67542	18.1	nan
1	67543	18.1	nan
1	67544	18.1	nan
1	71721	19.1	nan
1	71722	19.1	nan
1	71723	19.1	nan
1	71724	19.1	nan
1	71725	19.1	nan
1	71726	19.1	nan
1	71727	19.1	nan
1	71728	19.1	nan
1	71729	19.1	nan
1	71730	19.1	nan
1	71731	19.1	nan
1	75502	20.1	nan
1	75503	20.1	nan
1	75504	20.1	nan
1	75505	20.1	nan
1	75506	20.1	nan
1	75507	20.1	nan
1	75508	20.1	nan
1	75509	20.1	nan
1	75510	20.1	nan
1	75511	20.1	nan
1	75512	20.1	nan
1	79064	21.1	nan
1	79065	21.1	nan
1	79066	21.1	nan
1	79067	21.1	nan
1	79068	21.1	nan
1	79069	21.1	nan
1	79070	21.1	nan
1	79071	21.1	nan
1	79072	21.1	nan
1	79073	21.1	nan
1	79074	21.1	nan
2	38764	11.03342031478	141
2	38832	11.04726031478	282
2	38843	11.048272534095	423
2	38973	11.06110031478	564
2	38984	11.062112534095	705
2	39014	11.07494031478	846
2	39025	11.075952534095	987
2	39052	11.08878031478	1128
2	39063	11.089792534095	1269
2	39258	11.10262031478	1410
2	39269	11.103632534095	1551
2	39339	11.11646031478	1692
2	39358	11.117472534095	1833
2	39452	11.13030031478	1974
2	39466	11.131312534095	2115
2	39523	11.136032534095	2256
2	39550	11.140672534095	2397
2	39569	11.14414031478	2538
2	39580	11.145152534095	2679
2	39591	11.145312534095	2820
2	39618	11.149872534095	2961
2	39754	11.154512534095	3102
2	39773	11.15798031478	3243
2	39784	11.158992534095	3384
2	39795	11.159152534095	3525
2	39822	11.163712534095	3666
2	39861	11.168352534095	3807
2	39880	11.17182031478	3948
2	39891	11.172832534095	4089
2	39921	11.177552534095	4230
2	39940	11.182192534095	4371
2	39959	11.186672534095	4512
2	39970	11.186832534095	4653
2	40000	11.196032534095	4794
2	40155	11.200672534095	4935
2	40178	11.205232534095	5076
2	40189	11.209872534095	5217
2	40200	11.214512534095	5358
2	40243	11.219072534095	5499
2	40288	11.223712534095	5640
2	40315	11.228352534095	5781
2	40354	11.232912534095	5922
2	40373	11.237552534095	6063
2	40387	11.242192534095	6204
2	40406	11.246752534095	6345
2	40526	11.251392534095	6486
2	40537	11.256032534095	6627
2	40548	11.260592534095	6768
2	40571	11.265232534095	6909
2	40590	11.269872534095	7050
2	40617	11.274432534095	7191
2	40644	11.279072534095	7332
2	40671	11.283712534095	7473
2	40690	11.288272534095	7614
2	40712	11.292912534095	7755
2	40734	11.297552534095	7896
2	41187	11.39780899642	8037
2	41388	11.42548899642	8178
2	41407	11.43396899642	8319
2	41426	11.43932899642	8460
2	41445	11.44780899642	8601
2	41570	11.46164899642	8742
2	41593	11.46700899642	8883
2	41613	11.47548899642	9024
2	41662	11.48932899642	9165
2	41681	11.49468899642	9306
2	41840	11.50316899642	9447
2	41859	11.50852899642	9588
2	41935	11.52236899642	9729
2	41975	11.53084899642	9870
2	42019	11.53620899642	10011
2	42173	11.55852899642	10152
2	42184	11.56260899642	10293
2	42338	11.57644899642	10434
2	42369	11.58342031478	10575
2	42396	11.58620899642	10716
2	42574	11.60412899642	10857
2	42617	11.61796899642	10998
2	42649	11.63180899642	11139
2	42668	11.64564899642	11280
2	42793	11.65948899642	11421
2	42883	11.67332899642	11562
2	42940	11.686032534095	11703
2	42951	11.68716899642	11844
2	42970	11.690672534095	11985
2	42992	11.695312534095	12126
2	43151	11.70100899642	12267
2	43965	11.98396899642	12408
2	44158	12.02548899642	12549
2	44193	12.03932899642	12690
2	44397	12.09876899642	12831
2	44592	12.11260899642	12972
2	44809	12.12644899642	13113
2	44858	12.13342031478	13254
2	44877	12.137361530515	13395
2	44896	12.14028899642	13536
2	45022	12.15412899642	13677
2	45033	12.156031588182	13818
2	45072	12.16796899642	13959
2	45092	12.169871588182	14100
2	45123	12.183711588182	14241
2	45137	12.197551588182	14382
2	45300	12.211391588182	14523
2	45403	12.225231588182	14664
2	45451	12.236144122277	14805
2	45470	12.239071588182	14946
2	45481	12.240784122277	15087
2	45503	12.245424122277	15228
2	45629	12.252911588182	15369
2	45658	12.266751588182	15510
2	45699	12.294431588182	15651
2	46430	12.54780899642	15792
2	46599	12.57548899642	15933
2	47252	12.71164899642	16074
2	47311	12.73932899642	16215
2	47487	12.76700899642	16356
2	47558	12.78084899642	16497
2	47589	12.79468899642	16638
2	49145	13.23342031478	16779
2	49594	13.343584192201	16920
2	49613	13.348426728067	17061
2	50261	13.53396899642	17202
2	50280	13.54780899642	17343
2	50401	13.57548899642	17484
2	50420	13.58932899642	17625
2	50566	13.60316899642	17766
2	51061	13.742858386173	17907
2	51189	13.756698386173	18048
2	51759	13.883626728067	18189
2	52137	13.98396899642	18330
2	52156	13.99780899642	18471
2	52358	14.02548899642	18612
2	52722	14.14780899642	18753
2	52843	14.17548899642	18894
2	53577	14.33342031478	19035
2	54082	14.448272534095	19176
2	54222	14.452912534095	19317
2	54444	14.53396899642	19458
2	54463	14.54780899642	19599
2	54582	14.56164899642	19740
2	54682	14.593726529761	19881
2	54902	14.635246529761	20022
2	55020	14.662926529761	20163
2	55042	14.676766529761	20304
2	55061	14.690606529761	20445
2	55655	14.838218386173	20586
2	56492	15.007552534095	20727
2	57004	15.18396899642	20868
2	57018	15.19780899642	21009
2	57164	15.21164899642	21150
2	57183	15.22548899642	21291
2	57700	15.383626728067	21432
2	57968	15.43342031478	21573
2	58376	15.533626728067	21714
2	58404	15.538266728067	21855
2	58418	15.543584192201	21996
2	59046	15.73396899642	22137
2	59065	15.74780899642	22278
2	60461	16.093584192201	22419
2	60640	16.103160723733	22560
2	60683	16.117000723733	22701
2	60720	16.130840723733	22842
2	61847	16.483626728067	22983
2	62119	16.53342031478	23124
2	62602	16.643096785734	23265
2	62619	16.643584192201	23406
2	62621	16.643584192201	23547
2	62828	16.69876899642	23688
2	62983	16.71260899642	23829
2	63000	16.72644899642	23970
2	63359	16.83396899642	24111
2	64679	17.193584192201	24252
2	65852	17.583626728067	24393
2	66097	17.63342031478	24534
2	67767	18.133626728067	24675
2	68031	18.18342031478	24816
2	68042	18.183626728067	24957
2	68069	18.197466728067	25098
2	68228	18.211306728067	25239
2	68335	18.23396899642	25380
2	68625	18.293584192201	25521
2	68825	18.32644899642	25662
2	68844	18.33396899642	25803
2	68863	18.34780899642	25944
2	69009	18.37548899642	26085
2	69028	18.38932899642	26226
2	69185	18.40316899642	26367
2	69211	18.41700899642	26508
2	69243	18.43084899642	26649
2	69287	18.44468899642	26790
2	69407	18.45852899642	26931
2	70423	18.743584192201	27072
2	70431	18.743726529761	27213
2	70563	18.757424192201	27354
2	70571	18.757566529761	27495
2	71099	18.88396899642	27636
2	72281	19.233626728067	27777
2	72560	19.28342031478	27918
2	72585	19.293584192201	28059
2	73173	19.408384192201	28200
2	74562	19.833626728067	28341
2	74581	19.843096785734	28482
2	74592	19.843584192201	28623
2	74798	19.88396899642	28764
2	74812	19.89780899642	28905
2	74971	19.91164899642	29046
2	76219	20.333626728067	29187
2	76497	20.38342031478	29328
2	76519	20.393584192201	29469
2	76880	20.483626728067	29610
2	77206	20.56260899642	29751
2	78429	20.938456785734	29892
3	38764	11.03342031478	141
3	38832	11.04726031478	282
3	38843	11.048272534095	423
3	38973	11.06110031478	564
3	38984	11.062112534095	705
3	39014	11.07494031478	846
3	39025	11.075952534095	987
3	39052	11.08878031478	1128
3	39063	11.089792534095	1269
3	39258	11.10262031478	1410
3	39269	11.103632534095	1551
3	39339	11.11646031478	1692
3	39358	11.117472534095	1833
3	39452	11.13030031478	1974
3	39466	11.131312534095	2115
3	39523	11.136032534095	2256
3	39550	11.140672534095	2397
3	39569	11.14414031478	2538
3	39580	11.145152534095	2679
3	39591	11.145312534095	2820
3	39618	11.149872534095	2961
3	39754	11.154512534095	3102
3	39773	11.15798031478	3243
3	39784	11.158992534095	3384
3	39795	11.159152534095	3525
3	39822	11.163712534095	3666
3	39861	11.168352534095	3807
3	39880	11.17182031478	3948
3	39891	11.172832534095	4089
3	39921	11.177552534095	4230
3	39940	11.182192534095	4371
3	39959	11.186672534095	4512
3	39970	11.186832534095	4653
3	40000	11.196032534095	4794
3	40155	11.200672534095	4935
3	40178	11.205232534095	5076
3	40189	11.209872534095	5217
3	40200	11.214512534095	5358
3	40243	11.219072534095	5499
3	40288	11.223712534095	5640
3	40315	11.228352534095	5781
3	40354	11.232912534095	5922
3	40373	11.237552534095	6063
3	40387	11.242192534095	6204
3	40406	11.246752534095	6345
3	40526	11.251392534095	6486
3	40537	11.256032534095	6627
3	40548	11.260592534095	6768
3	40571	11.265232534095	6909
3	40590	11.269872534095	7050
3	40617	11.274432534095	7191
3	40644	11.279072534095	7332
3	40671	11.283712534095	7473
3	40690	11.288272534095	7614
3	40712	11.292912534095	7755
3	40734	11.297552534095	7896
3	41187	11.39780899642	8037
3	41388	11.42548899642	8178
3	41407	11.43396899642	8319
3	41426	11.43932899642	8460
3	41445	11.44780899642	8601
3	41570	11.46164899642	8742
3	41593	11.46700899642	8883
3	41613	11.47548899642	9024
3	41662	11.48932899642	9165
3	41681	11.49468899642	9306
3	41840	11.50316899642	9447
3	41859	11.50852899642	9588
3	41935	11.52236899642	9729
3	41975	11.53084899642	9870
3	42019	11.53620899642	10011
3	42173	11.55852899642	10152
3	42184	11.56260899642	10293
3	42338	11.57644899642	10434
3	42369	11.58342031478	10575
3	42396	11.58620899642	10716
3	42574	11.60412899642	10857
3	42617	11.61796899642	10998
3	42649	11.63180899642	11139
3	42668	11.64564899642	11280
3	42793	11.65948899642	11421
3	42883	11.67332899642	11562
3	42940	11.686032534095	11703
3	42951	11.68716899642	11844
3	42970	11.690672534095	11985
3	42992	11.695312534095	12126
3	43151	11.70100899642	12267
3	43965	11.98396899642	12408
3	44158	12.02548899642	12549
3	44193	12.03932899642	12690
3	44397	12.09876899642	12831
3	44592	12.11260899642	12972
3	44809	12.12644899642	13113
3	44858	12.13342031478	13254
3	44877	12.137361530515	13395
3	44896	12.14028899642	13536
3	45022	12.15412899642	13677
3	45033	12.156031588182	13818
3	45072	12.16796899642	13959
3	45092	12.169871588182	14100
3	45123	12.183711588182	14241
3	45137	12.197551588182	14382
3	45300	12.211391588182	14523
3	45403	12.225231588182	14664
3	45451	12.236144122277	14805
3	45470	12.239071588182	14946
3	45481	12.240784122277	15087
3	45503	12.245424122277	15228
3	45629	12.252911588182	15369
3	45658	12.266751588182	15510
3	45699	12.294431588182	15651
3	46430	12.54780899642	15792
3	46599	12.57548899642	15933
3	47252	12.71164899642	16074
3	47311	12.73932899642	16215
3	47487	12.76700899642	16356
3	47558	12.78084899642	16497
3	47589	12.79468899642	16638
3	49145	13.23342031478	16779
3	49594	13.343584192201	16920
3	49613	13.348426728067	17061
3	50261	13.53396899642	17202
3	50280	13.54780899642	17343
3	50401	13.57548899642	17484
3	50420	13.58932899642	17625
3	50566	13.60316899642	17766
3	51061	13.742858386173	17907
3	51189	13.756698386173	18048
3	51759	13.883626728067	18189
3	52137	13.98396899642	18330
3	52156	13.99780899642	18471
3	52358	14.02548899642	18612
3	52722	14.14780899642	18753
3	52843	14.17548899642	18894
3	53577	14.33342031478	19035
3	54082	14.448272534095	19176
3	54222	14.452912534095	19317
3	54444	14.53396899642	19458
3	54463	14.54780899642	19599
3	54582	14.56164899642	19740
3	54682	14.593726529761	19881
3	54902	14.635246529761	20022
3	55020	14.662926529761	20163
3	55042	14.676766529761	20304
3	55061	14.690606529761	20445
3	55655	14.838218386173	20586
3	56492	15.007552534095	20727
3	57004	15.18396899642	20868
3	57018	15.19780899642	21009
3	57164	15.21164899642	21150
3	57183	15.22548899642	21291
3	57700	15.383626728067	21432
3	57968	15.43342031478	21573
3	58376	15.533626728067	21714
3	58404	15.538266728067	21855
3	58418	15.543584192201	21996
3	59046	15.73396899642	22137
3	59065	15.74780899642	22278
3	60461	16.093584192201	22419
3	60640	16.103160723733	22560
3	60683	16.117000723733	22701
3	60720	16.130840723733	22842
3	61847	16.483626728067	22983
3	62119	16.53342031478	23124
3	62602	16.643096785734	23265
3	62619	16.643584192201	23406
3	62621	16.643584192201	23547
3	62828	16.69876899642	23688
3	62983	16.71260899642	23829
3	63000	16.72644899642	23970
3	63359	16.83396899642	24111
3	64679	17.193584192201	24252
3	65852	17.583626728067	24393
3	66097	17.63342031478	24534
3	67767	18.133626728067	24675
3	68031	18.18342031478	24816
3	68042	18.183626728067	24957
3	68069	18.197466728067	25098
3	68228	18.211306728067	25239
3	68335	18.23396899642	25380
3	68625	18.293584192201	25521
3	68825	18.32644899642	25662
3	68844	18.33396899642	25803
3	68863	18.34780899642	25944
3	69009	18.37548899642	26085
3	69028	18.38932899642	26226
3	69185	18.40316899642	26367
3	69211	18.41700899642	26508
3	69243	18.43084899642	26649
3	69287	18.44468899642	26790
3	69407	18.45852899642	26931
3	70423	18.743584192201	27072
3	70431	18.743726529761	27213
3	70563	18.757424192201	27354
3	70571	18.757566529761	27495
3	71099	18.88396899642	27636
3	72281	19.233626728067	27777
3	72560	19.28342031478	27918
3	72585	19.293584192201	28059
3	73173	19.408384192201	28200
3	74562	19.833626728067	28341
3	74581	19.843096785734	28482
3	74592	19.843584192201	28623
3	74798	19.88396899642	28764
3	74812	19.89780899642	28905
3	74971	19.91164899642	29046
3	76219	20.333626728067	29187
3	76497	20.38342031478	29328
3	76519	20.393584192201	29469
3	76880	20.483626728067	29610
3	77206	20.56260899642	29751
3	78429	20.938456785734	29892

