version 2
run A-0-20210217-22:38:17-17012
attr configname A
attr datetime 20210217-22:38:17
attr experiment A
attr inifile GwSimV3_2021.ini
attr iterationvars ""
attr iterationvarsf ""
attr measurement ""
attr network NetworkTormV2
attr processid 17012
attr repetition 0
attr replication #0
attr resultdir results
attr runnumber 0
attr seedset 0
param **.mobility.traceFile "\"AllPaths/paths_dev/opaqs_A.movements\""
param **.numNodes 2
param **.application.dataGenerationInterval 1s
param **.application.dataSizeInBytes 10
param **.application.ttl 999999s
param **application.nodesThatGen false
param **application.nodesGenMsg "\"\""
param **application.startMultipleMsg true
param **application.numMultipleMsg 100
param **application.hopsListSize 50
param **.application.endGeneratingMsg 149s
param **.routingLayer "\"RoutingLqeGw\""
param **.routing.maximumCacheSize 5000byte
param **.routing.maximumHopCount 25
param **.routing.useTTL false
param **.routing.waitBFsend 0.1
param **.routing.max_age 999999s
param **.routing.gateway_list "\"\""
param **.routing.actual_gateway "\"\""
param **.routing.gwCheckPeriod 5s
param **.neighboring.resetGPeriod 999s
param **.wirelessIfc.wirelessRange 40m
param **.numNodes 2
param **.application.usedRNG 1
param **.application.dataGenerationInterval 1s
param **.application.dataSizeInBytes 10
param **.application.ttl 999999s
param **application.destinationAddr "\"Wf:00:00:00:00:02\""
param **application.destinationBTAddr "\"Bt:00:00:00:00:02\""
param **application.nodesThatGen true
param **application.nodesGenMsg "\"0\""
param **application.startMultipleMsg true
param **application.numMultipleMsg 100
param **application.hopsListSize 50
param **.application.endGeneratingMsg 999999s
param **.routingLayer "\"RoutingLqeGw\""
param **.routing.maximumCacheSize 5000byte
param **.routing.maximumHopCount 25
param **.routing.useTTL false
param **.routing.waitBFsend 0.1
param **.routing.max_age 999999s
param **.routing.gateway_list "\"\""
param **.routing.actual_gateway "\"\""
param **.routing.gwCheckPeriod 5s
param **.neighboring.antiEntropyInterval 500ms
param **.neighboring.maximumRandomBackoffDuration 1s
param **.neighboring.delayPerDataMsg 0.1
param **neighboring.usedRNG 2
param **.neighboring.GWAddr "\"Wf:00:00:00:00:02\""
param **.neighboring.sendWifiFirst true
param **.neighboring.max_age 999999s
param **.neighboring.max_absent_time 1s
param **.neighboring.maxLengthGraph 15
param **.wirelessIfc.wirelessRange 40m
param **.wirelessIfc.neighbourScanInterval 50ms
param **.wirelessIfc.bandwidthBitRate 100000bps
param **.wirelessIfc.wirelessHeaderSize 32byte
param **.wirelessIfc.minSSI -90
param **.wirelessIfc.limitQueueTime 400ms
param **.wirelessIfc.my_limit_rate 0bps
param **.bluetoothIfc.wirelessRange 40m
param **.bluetoothIfc.neighbourScanInterval 100ms
param **.bluetoothIfc.bandwidthBitRate 100000bps
param **.bluetoothIfc.wirelessHeaderSize 16byte
param **.bluetoothIfc.minSSI -90
param **.mobilityType "\"BonnMotionMobility\""
param **.mobility.traceFile "\"paths/Moves2.movements\""
param **.mobility.is3D false
param **.mobility.nodeId -1

vector 0 NetworkTormV2 neighbourhoodSize:vector ETV
attr source neighbourhoodSize
vector 1 NetworkTormV2 deliveryRatio:vector ETV
attr source sum(totalDataBytesReceived)/sum(totalDataBytesReceivableByAllNodes)
vector 2 NetworkTormV2 dataBytesReceivedSum:vector ETV
attr source sum(dataBytesReceived)
vector 3 NetworkTormV2 totalBytesReceivedSum:vector ETV
attr source sum(totalBytesReceived)
0	7	0.05	1
0	8	0.05	1
0	26	0.1	1
0	28	0.1	1
0	30	0.1	1
0	31	0.1	1
0	54	0.15	1
0	55	0.15	1
0	72	0.2	1
0	73	0.2	1
0	75	0.2	1
0	76	0.2	1
0	97	0.25	1
0	98	0.25	1
0	115	0.3	1
0	116	0.3	1
0	118	0.3	1
0	119	0.3	1
0	140	0.35	1
0	141	0.35	1
0	158	0.4	1
0	159	0.4	1
0	161	0.4	1
0	162	0.4	1
0	183	0.45	1
0	184	0.45	1
0	201	0.5	1
0	202	0.5	1
0	204	0.5	1
0	205	0.5	1
0	226	0.55	1
0	227	0.55	1
0	244	0.6	1
0	245	0.6	1
0	247	0.6	1
0	248	0.6	1
0	269	0.65	1
0	270	0.65	1
0	287	0.7	1
0	288	0.7	1
0	290	0.7	1
0	291	0.7	1
0	312	0.75	1
0	313	0.75	1
0	330	0.8	1
0	331	0.8	1
0	333	0.8	1
0	334	0.8	1
0	355	0.85	1
0	356	0.85	1
0	373	0.9	1
0	374	0.9	1
0	376	0.9	1
0	377	0.9	1
0	398	0.95	1
0	399	0.95	1
0	416	1	1
0	417	1	1
0	419	1	1
0	420	1	1
0	441	1.05	1
0	442	1.05	1
0	461	1.1	1
0	462	1.1	1
0	464	1.1	1
0	465	1.1	1
0	534	1.15	1
0	535	1.15	1
0	552	1.2	1
0	553	1.2	1
0	555	1.2	1
0	556	1.2	1
0	577	1.25	1
0	578	1.25	1
0	595	1.3	1
0	596	1.3	1
0	598	1.3	1
0	599	1.3	1
0	620	1.35	1
0	621	1.35	1
0	638	1.4	1
0	639	1.4	1
0	641	1.4	1
0	642	1.4	1
0	663	1.45	1
0	664	1.45	1
0	681	1.5	1
0	682	1.5	1
0	684	1.5	1
0	685	1.5	1
0	706	1.55	1
0	707	1.55	1
0	724	1.6	1
0	725	1.6	1
0	727	1.6	1
0	728	1.6	1
0	749	1.65	1
0	750	1.65	1
0	813	1.7	1
0	814	1.7	1
0	816	1.7	1
0	817	1.7	1
0	838	1.75	1
0	839	1.75	1
0	856	1.8	1
0	857	1.8	1
0	859	1.8	1
0	860	1.8	1
0	881	1.85	1
0	882	1.85	1
0	899	1.9	1
0	900	1.9	1
0	902	1.9	1
0	903	1.9	1
0	924	1.95	1
0	925	1.95	1
0	942	2	1
0	943	2	1
0	945	2	1
0	946	2	1
0	967	2.05	1
0	968	2.05	1
0	987	2.1	1
0	988	2.1	1
0	990	2.1	1
0	991	2.1	1
0	1014	2.15	1
0	1015	2.15	1
0	1032	2.2	1
0	1033	2.2	1
0	1035	2.2	1
0	1036	2.2	1
0	1103	2.25	1
0	1104	2.25	1
0	1121	2.3	1
0	1122	2.3	1
0	1124	2.3	1
0	1125	2.3	1
0	1146	2.35	1
0	1147	2.35	1
0	1164	2.4	1
0	1165	2.4	1
0	1167	2.4	1
0	1168	2.4	1
0	1189	2.45	1
0	1190	2.45	1
0	1207	2.5	1
0	1208	2.5	1
0	1210	2.5	1
0	1211	2.5	1
0	1232	2.55	1
0	1233	2.55	1
0	1250	2.6	1
0	1251	2.6	1
0	1253	2.6	1
0	1254	2.6	1
0	1275	2.65	1
0	1276	2.65	1
0	1293	2.7	1
0	1294	2.7	1
0	1296	2.7	1
0	1297	2.7	1
0	1318	2.75	1
0	1319	2.75	1
0	1382	2.8	1
0	1383	2.8	1
0	1385	2.8	1
0	1386	2.8	1
0	1407	2.85	1
0	1408	2.85	1
0	1425	2.9	1
0	1426	2.9	1
0	1428	2.9	1
0	1429	2.9	1
0	1450	2.95	1
0	1451	2.95	1
0	1468	3	1
0	1469	3	1
0	1471	3	1
0	1472	3	1
0	1493	3.05	1
0	1494	3.05	1
0	1513	3.1	1
0	1514	3.1	1
0	1516	3.1	1
0	1517	3.1	1
0	1540	3.15	1
0	1541	3.15	1
0	1558	3.2	1
0	1559	3.2	1
0	1561	3.2	1
0	1562	3.2	1
0	1583	3.25	1
0	1584	3.25	1
0	1601	3.3	1
0	1602	3.3	1
0	1604	3.3	1
0	1605	3.3	1
0	1672	3.35	1
0	1673	3.35	1
0	1690	3.4	1
0	1691	3.4	1
0	1693	3.4	1
0	1694	3.4	1
0	1715	3.45	1
0	1716	3.45	1
0	1733	3.5	1
0	1734	3.5	1
0	1736	3.5	1
0	1737	3.5	1
0	1758	3.55	1
0	1759	3.55	1
0	1776	3.6	1
0	1777	3.6	1
0	1779	3.6	1
0	1780	3.6	1
0	1801	3.65	1
0	1802	3.65	1
0	1819	3.7	1
0	1820	3.7	1
0	1822	3.7	1
0	1823	3.7	1
0	1844	3.75	1
0	1845	3.75	1
0	1862	3.8	1
0	1863	3.8	1
0	1865	3.8	1
0	1866	3.8	1
0	1887	3.85	1
0	1888	3.85	1
0	1951	3.9	1
0	1952	3.9	1
0	1954	3.9	1
0	1955	3.9	1
0	1976	3.95	1
0	1977	3.95	1
0	1994	4	1
0	1995	4	1
0	1997	4	1
0	1998	4	1
0	2019	4.05	1
0	2020	4.05	1
0	2039	4.1	1
0	2040	4.1	1
0	2042	4.1	1
0	2043	4.1	1
0	2066	4.15	1
0	2067	4.15	1
0	2084	4.2	1
0	2085	4.2	1
0	2087	4.2	1
0	2088	4.2	1
0	2109	4.25	1
0	2110	4.25	1
0	2127	4.3	1
0	2128	4.3	1
0	2130	4.3	1
0	2131	4.3	1
0	2152	4.35	1
0	2153	4.35	1
0	2170	4.4	1
0	2171	4.4	1
0	2173	4.4	1
0	2174	4.4	1
0	2241	4.45	1
0	2242	4.45	1
0	2259	4.5	1
0	2260	4.5	1
0	2262	4.5	1
0	2263	4.5	1
0	2284	4.55	1
0	2285	4.55	1
0	2302	4.6	1
0	2303	4.6	1
0	2305	4.6	1
0	2306	4.6	1
0	2327	4.65	1
0	2328	4.65	1
0	2345	4.7	1
0	2346	4.7	1
0	2348	4.7	1
0	2349	4.7	1
0	2370	4.75	1
0	2371	4.75	1
0	2388	4.8	1
0	2389	4.8	1
0	2391	4.8	1
0	2392	4.8	1
0	2413	4.85	1
0	2414	4.85	1
0	2431	4.9	1
0	2432	4.9	1
0	2434	4.9	1
0	2435	4.9	1
0	2456	4.95	1
0	2457	4.95	1
0	2522	5	1
0	2523	5	1
0	2525	5	1
0	2526	5	1
0	2547	5.05	1
0	2548	5.05	1
0	2567	5.1	1
0	2568	5.1	1
0	2570	5.1	1
0	2571	5.1	1
0	2594	5.15	1
0	2595	5.15	1
0	2612	5.2	1
0	2613	5.2	1
0	2615	5.2	1
0	2616	5.2	1
0	2637	5.25	1
0	2638	5.25	1
0	2655	5.3	1
0	2656	5.3	1
0	2658	5.3	1
0	2659	5.3	1
0	2680	5.35	1
0	2681	5.35	1
0	2698	5.4	1
0	2699	5.4	1
0	2701	5.4	1
0	2702	5.4	1
0	2723	5.45	1
0	2724	5.45	1
0	2741	5.5	1
0	2742	5.5	1
0	2744	5.5	1
0	2745	5.5	1
0	2812	5.55	1
0	2813	5.55	1
0	2830	5.6	1
0	2831	5.6	1
0	2833	5.6	1
0	2834	5.6	1
0	2855	5.65	1
0	2856	5.65	1
0	2873	5.7	1
0	2874	5.7	1
0	2876	5.7	1
0	2877	5.7	1
0	2898	5.75	1
0	2899	5.75	1
0	2916	5.8	1
0	2917	5.8	1
0	2919	5.8	1
0	2920	5.8	1
0	2941	5.85	1
0	2942	5.85	1
0	2959	5.9	1
0	2960	5.9	1
0	2962	5.9	1
0	2963	5.9	1
0	2984	5.95	1
0	2985	5.95	1
0	3004	6	1
0	3005	6	1
0	3007	6	1
0	3008	6	1
0	3029	6.05	1
0	3030	6.05	1
0	3095	6.1	1
0	3096	6.1	1
0	3098	6.1	1
0	3099	6.1	1
0	3122	6.15	1
0	3123	6.15	1
0	3140	6.2	1
0	3141	6.2	1
0	3143	6.2	1
0	3144	6.2	1
0	3165	6.25	1
0	3166	6.25	1
0	3183	6.3	1
0	3184	6.3	1
0	3186	6.3	1
0	3187	6.3	1
0	3208	6.35	1
0	3209	6.35	1
0	3226	6.4	1
0	3227	6.4	1
0	3229	6.4	1
0	3230	6.4	1
0	3251	6.45	1
0	3252	6.45	1
0	3269	6.5	1
0	3270	6.5	1
0	3272	6.5	1
0	3273	6.5	1
0	3294	6.55	1
0	3295	6.55	1
0	3312	6.6	1
0	3313	6.6	1
0	3315	6.6	1
0	3316	6.6	1
0	3383	6.65	1
0	3384	6.65	1
0	3401	6.7	1
0	3402	6.7	1
0	3404	6.7	1
0	3405	6.7	1
0	3426	6.75	1
0	3427	6.75	1
0	3444	6.8	1
0	3445	6.8	1
0	3447	6.8	1
0	3448	6.8	1
0	3469	6.85	1
0	3470	6.85	1
0	3487	6.9	1
0	3488	6.9	1
0	3490	6.9	1
0	3491	6.9	1
0	3512	6.95	1
0	3513	6.95	1
0	3532	7	1
0	3533	7	1
0	3535	7	1
0	3536	7	1
0	3557	7.05	1
0	3558	7.05	1
0	3577	7.1	1
0	3578	7.1	1
0	3580	7.1	1
0	3581	7.1	1
0	3604	7.15	1
0	3605	7.15	1
0	3668	7.2	1
0	3669	7.2	1
0	3671	7.2	1
0	3672	7.2	1
0	3693	7.25	1
0	3694	7.25	1
0	3711	7.3	1
0	3712	7.3	1
0	3714	7.3	1
0	3715	7.3	1
0	3736	7.35	1
0	3737	7.35	1
0	3754	7.4	1
0	3755	7.4	1
0	3757	7.4	1
0	3758	7.4	1
0	3779	7.45	1
0	3780	7.45	1
0	3797	7.5	1
0	3798	7.5	1
0	3800	7.5	1
0	3801	7.5	1
0	3822	7.55	1
0	3823	7.55	1
0	3840	7.6	1
0	3841	7.6	1
0	3843	7.6	1
0	3844	7.6	1
0	3865	7.65	1
0	3866	7.65	1
0	3883	7.7	1
0	3884	7.7	1
0	3886	7.7	1
0	3887	7.7	1
0	3954	7.75	1
0	3955	7.75	1
0	3972	7.8	1
0	3973	7.8	1
0	3975	7.8	1
0	3976	7.8	1
0	3997	7.85	1
0	3998	7.85	1
0	4015	7.9	1
0	4016	7.9	1
0	4018	7.9	1
0	4019	7.9	1
0	4040	7.95	1
0	4041	7.95	1
0	4060	8	1
0	4061	8	1
0	4063	8	1
0	4064	8	1
0	4085	8.05	1
0	4086	8.05	1
0	4105	8.1	1
0	4106	8.1	1
0	4108	8.1	1
0	4109	8.1	1
0	4132	8.15	1
0	4133	8.15	1
0	4150	8.2	1
0	4151	8.2	1
0	4153	8.2	1
0	4154	8.2	1
0	4175	8.25	1
0	4176	8.25	1
0	4239	8.3	1
0	4240	8.3	1
0	4242	8.3	1
0	4243	8.3	1
0	4264	8.35	1
0	4265	8.35	1
0	4282	8.4	1
0	4283	8.4	1
0	4285	8.4	1
0	4286	8.4	1
0	4307	8.45	1
0	4308	8.45	1
0	4325	8.5	1
0	4326	8.5	1
0	4328	8.5	1
0	4329	8.5	1
0	4350	8.55	1
0	4351	8.55	1
0	4368	8.6	1
0	4369	8.6	1
0	4371	8.6	1
0	4372	8.6	1
0	4393	8.65	1
0	4394	8.65	1
0	4411	8.7	1
0	4412	8.7	1
0	4414	8.7	1
0	4415	8.7	1
0	4436	8.75	1
0	4437	8.75	1
0	4454	8.8	1
0	4455	8.8	1
0	4457	8.8	1
0	4458	8.8	1
0	4525	8.85	1
0	4526	8.85	1
0	4543	8.9	1
0	4544	8.9	1
0	4546	8.9	1
0	4547	8.9	1
0	4568	8.95	1
0	4569	8.95	1
0	4588	9	1
0	4589	9	1
0	4591	9	1
0	4592	9	1
0	4613	9.05	1
0	4614	9.05	1
0	4633	9.1	1
0	4634	9.1	1
0	4636	9.1	1
0	4637	9.1	1
0	4660	9.15	1
0	4661	9.15	1
0	4678	9.2	1
0	4679	9.2	1
0	4681	9.2	1
0	4682	9.2	1
0	4703	9.25	1
0	4704	9.25	1
0	4721	9.3	1
0	4722	9.3	1
0	4724	9.3	1
0	4725	9.3	1
0	4746	9.35	1
0	4747	9.35	1
0	4810	9.4	1
0	4811	9.4	1
0	4813	9.4	1
0	4814	9.4	1
0	4835	9.45	1
0	4836	9.45	1
0	4853	9.5	1
0	4854	9.5	1
0	4856	9.5	1
0	4857	9.5	1
0	4878	9.55	1
0	4879	9.55	1
0	4896	9.6	1
0	4897	9.6	1
0	4899	9.6	1
0	4900	9.6	1
0	4921	9.65	1
0	4922	9.65	1
0	4939	9.7	1
0	4940	9.7	1
0	4942	9.7	1
0	4943	9.7	1
0	4964	9.75	1
0	4965	9.75	1
0	4982	9.8	1
0	4983	9.8	1
0	4985	9.8	1
0	4986	9.8	1
0	5007	9.85	1
0	5008	9.85	1
0	5025	9.9	1
0	5026	9.9	1
0	5028	9.9	1
0	5029	9.9	1
0	5096	9.95	1
0	5097	9.95	1
0	5116	10	1
0	5117	10	1
0	5119	10	1
0	5120	10	1
0	5141	10.05	1
0	5142	10.05	1
0	5161	10.1	1
0	5162	10.1	1
0	5164	10.1	1
0	5165	10.1	1
0	5189	10.15	1
0	5190	10.15	1
0	5207	10.2	1
0	5208	10.2	1
0	5210	10.2	1
0	5211	10.2	1
0	5232	10.25	1
0	5233	10.25	1
0	5250	10.3	1
0	5251	10.3	1
0	5253	10.3	1
0	5254	10.3	1
0	5275	10.35	1
0	5276	10.35	1
0	5293	10.4	1
0	5294	10.4	1
0	5296	10.4	1
0	5297	10.4	1
0	5318	10.45	1
0	5319	10.45	1
0	5382	10.5	1
0	5383	10.5	1
0	5385	10.5	1
0	5386	10.5	1
0	5407	10.55	1
0	5408	10.55	1
0	5425	10.6	1
0	5426	10.6	1
0	5428	10.6	1
0	5429	10.6	1
0	5450	10.65	1
0	5451	10.65	1
0	5468	10.7	1
0	5469	10.7	1
0	5471	10.7	1
0	5472	10.7	1
0	5493	10.75	1
0	5494	10.75	1
0	5511	10.8	1
0	5512	10.8	1
0	5514	10.8	1
0	5515	10.8	1
0	5536	10.85	1
0	5537	10.85	1
0	5554	10.9	1
0	5555	10.9	1
0	5557	10.9	1
0	5558	10.9	1
0	5579	10.95	1
0	5580	10.95	1
0	5599	11	1
0	5600	11	1
0	5602	11	1
0	5603	11	1
0	5730	11.05	1
0	5731	11.05	1
0	5807	11.1	1
0	5808	11.1	1
0	5810	11.1	1
0	5811	11.1	1
0	5911	11.15	1
0	5912	11.15	1
0	5967	11.2	1
0	5968	11.2	1
0	5970	11.2	1
0	5971	11.2	1
0	5992	11.25	1
0	5993	11.25	1
0	6010	11.3	1
0	6011	11.3	1
0	6013	11.3	1
0	6014	11.3	1
0	6035	11.35	1
0	6036	11.35	1
0	6053	11.4	1
0	6054	11.4	1
0	6056	11.4	1
0	6057	11.4	1
0	6078	11.45	1
0	6079	11.45	1
0	6096	11.5	1
0	6097	11.5	1
0	6099	11.5	1
0	6100	11.5	1
0	6121	11.55	1
0	6122	11.55	1
0	6206	11.6	1
0	6207	11.6	1
0	6209	11.6	1
0	6210	11.6	1
0	6231	11.65	1
0	6232	11.65	1
0	6249	11.7	1
0	6250	11.7	1
0	6252	11.7	1
0	6253	11.7	1
0	6274	11.75	1
0	6275	11.75	1
0	6292	11.8	1
0	6293	11.8	1
0	6295	11.8	1
0	6296	11.8	1
0	6317	11.85	1
0	6318	11.85	1
0	6335	11.9	1
0	6336	11.9	1
0	6338	11.9	1
0	6339	11.9	1
0	6360	11.95	1
0	6361	11.95	1
0	6379	12	1
0	6380	12	1
0	6382	12	1
0	6383	12	1
0	6404	12.05	1
0	6405	12.05	1
0	6424	12.1	1
0	6425	12.1	1
0	6427	12.1	1
0	6428	12.1	1
0	6519	12.15	1
0	6520	12.15	1
0	6537	12.2	1
0	6538	12.2	1
0	6540	12.2	1
0	6541	12.2	1
0	6562	12.25	1
0	6563	12.25	1
0	6580	12.3	1
0	6581	12.3	1
0	6583	12.3	1
0	6584	12.3	1
0	6605	12.35	1
0	6606	12.35	1
0	6623	12.4	1
0	6624	12.4	1
0	6626	12.4	1
0	6627	12.4	1
0	6648	12.45	1
0	6649	12.45	1
0	6666	12.5	1
0	6667	12.5	1
0	6669	12.5	1
0	6670	12.5	1
0	6691	12.55	1
0	6692	12.55	1
0	6709	12.6	1
0	6710	12.6	1
0	6712	12.6	1
0	6713	12.6	1
0	6734	12.65	1
0	6735	12.65	1
0	6798	12.7	1
0	6799	12.7	1
0	6801	12.7	1
0	6802	12.7	1
0	6823	12.75	1
0	6824	12.75	1
0	6841	12.8	1
0	6842	12.8	1
0	6844	12.8	1
0	6845	12.8	1
0	6866	12.85	1
0	6867	12.85	1
0	6884	12.9	1
0	6885	12.9	1
0	6887	12.9	1
0	6888	12.9	1
0	6909	12.95	1
0	6910	12.95	1
0	6927	13	1
0	6928	13	1
0	6930	13	1
0	6931	13	1
0	6952	13.05	1
0	6953	13.05	1
0	6972	13.1	1
0	6973	13.1	1
0	6975	13.1	1
0	6976	13.1	1
0	7000	13.15	1
0	7001	13.15	1
0	7018	13.2	1
0	7019	13.2	1
0	7021	13.2	1
0	7022	13.2	1
0	7110	13.25	1
0	7111	13.25	1
0	7128	13.3	1
0	7129	13.3	1
0	7131	13.3	1
0	7132	13.3	1
0	7153	13.35	1
0	7154	13.35	1
0	7171	13.4	1
0	7172	13.4	1
0	7174	13.4	1
0	7175	13.4	1
0	7196	13.45	1
0	7197	13.45	1
0	7214	13.5	1
0	7215	13.5	1
0	7217	13.5	1
0	7218	13.5	1
0	7239	13.55	1
0	7240	13.55	1
0	7257	13.6	1
0	7258	13.6	1
0	7260	13.6	1
0	7261	13.6	1
0	7282	13.65	1
0	7283	13.65	1
0	7300	13.7	1
0	7301	13.7	1
0	7303	13.7	1
0	7304	13.7	1
0	7325	13.75	1
0	7326	13.75	1
0	7389	13.8	1
0	7390	13.8	1
0	7392	13.8	1
0	7393	13.8	1
0	7414	13.85	1
0	7415	13.85	1
0	7432	13.9	1
0	7433	13.9	1
0	7435	13.9	1
0	7436	13.9	1
0	7457	13.95	1
0	7458	13.95	1
0	7475	14	1
0	7476	14	1
0	7478	14	1
0	7479	14	1
0	7500	14.05	1
0	7501	14.05	1
0	7520	14.1	1
0	7521	14.1	1
0	7523	14.1	1
0	7524	14.1	1
0	7548	14.15	1
0	7549	14.15	1
0	7566	14.2	1
0	7567	14.2	1
0	7569	14.2	1
0	7570	14.2	1
0	7591	14.25	1
0	7592	14.25	1
0	7609	14.3	1
0	7610	14.3	1
0	7612	14.3	1
0	7613	14.3	1
0	7701	14.35	1
0	7702	14.35	1
0	7719	14.4	1
0	7720	14.4	1
0	7722	14.4	1
0	7723	14.4	1
0	7744	14.45	1
0	7745	14.45	1
0	7762	14.5	1
0	7763	14.5	1
0	7765	14.5	1
0	7766	14.5	1
0	7787	14.55	1
0	7788	14.55	1
0	7805	14.6	1
0	7806	14.6	1
0	7808	14.6	1
0	7809	14.6	1
0	7830	14.65	1
0	7831	14.65	1
0	7848	14.7	1
0	7849	14.7	1
0	7851	14.7	1
0	7852	14.7	1
0	7873	14.75	1
0	7874	14.75	1
0	7891	14.8	1
0	7892	14.8	1
0	7894	14.8	1
0	7895	14.8	1
0	7916	14.85	1
0	7917	14.85	1
0	7980	14.9	1
0	7981	14.9	1
0	7983	14.9	1
0	7984	14.9	1
0	8005	14.95	1
0	8006	14.95	1
0	8023	15	1
0	8024	15	1
0	8026	15	1
0	8027	15	1
0	8048	15.05	1
0	8049	15.05	1
0	8068	15.1	1
0	8069	15.1	1
0	8071	15.1	1
0	8072	15.1	1
0	8096	15.15	1
0	8097	15.15	1
0	8114	15.2	1
0	8115	15.2	1
0	8117	15.2	1
0	8118	15.2	1
0	8139	15.25	1
0	8140	15.25	1
0	8157	15.3	1
0	8158	15.3	1
0	8160	15.3	1
0	8161	15.3	1
0	8182	15.35	1
0	8183	15.35	1
0	8200	15.4	1
0	8201	15.4	1
0	8203	15.4	1
0	8204	15.4	1
0	8292	15.45	1
0	8293	15.45	1
0	8310	15.5	1
0	8311	15.5	1
0	8313	15.5	1
0	8314	15.5	1
0	8335	15.55	1
0	8336	15.55	1
0	8353	15.6	1
0	8354	15.6	1
0	8356	15.6	1
0	8357	15.6	1
0	8378	15.65	1
0	8379	15.65	1
0	8396	15.7	1
0	8397	15.7	1
0	8399	15.7	1
0	8400	15.7	1
0	8421	15.75	1
0	8422	15.75	1
0	8439	15.8	1
0	8440	15.8	1
0	8442	15.8	1
0	8443	15.8	1
0	8464	15.85	1
0	8465	15.85	1
0	8482	15.9	1
0	8483	15.9	1
0	8485	15.9	1
0	8486	15.9	1
0	8507	15.95	1
0	8508	15.95	1
0	8572	16	1
0	8573	16	1
0	8575	16	1
0	8576	16	1
0	8597	16.05	1
0	8598	16.05	1
0	8617	16.1	1
0	8618	16.1	1
0	8620	16.1	1
0	8621	16.1	1
0	8645	16.15	1
0	8646	16.15	1
0	8663	16.2	1
0	8664	16.2	1
0	8666	16.2	1
0	8667	16.2	1
0	8688	16.25	1
0	8689	16.25	1
0	8706	16.3	1
0	8707	16.3	1
0	8709	16.3	1
0	8710	16.3	1
0	8731	16.35	1
0	8732	16.35	1
0	8749	16.4	1
0	8750	16.4	1
0	8752	16.4	1
0	8753	16.4	1
0	8774	16.45	1
0	8775	16.45	1
0	8792	16.5	1
0	8793	16.5	1
0	8795	16.5	1
0	8796	16.5	1
0	8884	16.55	1
0	8885	16.55	1
0	8902	16.6	1
0	8903	16.6	1
0	8905	16.6	1
0	8906	16.6	1
0	8927	16.65	1
0	8928	16.65	1
0	8945	16.7	1
0	8946	16.7	1
0	8948	16.7	1
0	8949	16.7	1
0	8970	16.75	1
0	8971	16.75	1
0	8988	16.8	1
0	8989	16.8	1
0	8991	16.8	1
0	8992	16.8	1
0	9013	16.85	1
0	9014	16.85	1
0	9031	16.9	1
0	9032	16.9	1
0	9034	16.9	1
0	9035	16.9	1
0	9056	16.95	1
0	9057	16.95	1
0	9075	17	1
0	9076	17	1
0	9078	17	1
0	9079	17	1
0	9100	17.05	1
0	9101	17.05	1
0	9166	17.1	1
0	9167	17.1	1
0	9169	17.1	1
0	9170	17.1	1
0	9194	17.15	1
0	9195	17.15	1
0	9212	17.2	1
0	9213	17.2	1
0	9215	17.2	1
0	9216	17.2	1
0	9237	17.25	1
0	9238	17.25	1
0	9255	17.3	1
0	9256	17.3	1
0	9258	17.3	1
0	9259	17.3	1
0	9280	17.35	1
0	9281	17.35	1
0	9298	17.4	1
0	9299	17.4	1
0	9301	17.4	1
0	9302	17.4	1
0	9323	17.45	1
0	9324	17.45	1
0	9341	17.5	1
0	9342	17.5	1
0	9344	17.5	1
0	9345	17.5	1
0	9366	17.55	1
0	9367	17.55	1
0	9384	17.6	1
0	9385	17.6	1
0	9387	17.6	1
0	9388	17.6	1
0	9476	17.65	1
0	9477	17.65	1
0	9494	17.7	1
0	9495	17.7	1
0	9497	17.7	1
0	9498	17.7	1
0	9519	17.75	1
0	9520	17.75	1
0	9537	17.8	1
0	9538	17.8	1
0	9540	17.8	1
0	9541	17.8	1
0	9562	17.85	1
0	9563	17.85	1
0	9580	17.9	1
0	9581	17.9	1
0	9583	17.9	1
0	9584	17.9	1
0	9605	17.95	1
0	9606	17.95	1
0	9624	18	1
0	9625	18	1
0	9627	18	1
0	9628	18	1
0	9649	18.05	1
0	9650	18.05	1
0	9669	18.1	1
0	9670	18.1	1
0	9672	18.1	1
0	9673	18.1	1
0	9697	18.15	1
0	9698	18.15	1
0	9782	18.2	1
0	9783	18.2	1
0	9785	18.2	1
0	9786	18.2	1
0	9807	18.25	1
0	9808	18.25	1
0	9825	18.3	1
0	9826	18.3	1
0	9828	18.3	1
0	9829	18.3	1
0	9850	18.35	1
0	9851	18.35	1
0	9868	18.4	1
0	9869	18.4	1
0	9871	18.4	1
0	9872	18.4	1
0	9893	18.45	1
0	9894	18.45	1
0	9911	18.5	1
0	9912	18.5	1
0	9914	18.5	1
0	9915	18.5	1
0	9936	18.55	1
0	9937	18.55	1
0	9954	18.6	1
0	9955	18.6	1
0	9957	18.6	1
0	9958	18.6	1
0	9979	18.65	1
0	9980	18.65	1
0	9997	18.7	1
0	9998	18.7	1
0	10000	18.7	1
0	10001	18.7	1
0	10068	18.75	1
0	10069	18.75	1
0	10086	18.8	1
0	10087	18.8	1
0	10089	18.8	1
0	10090	18.8	1
0	10111	18.85	1
0	10112	18.85	1
0	10129	18.9	1
0	10130	18.9	1
0	10132	18.9	1
0	10133	18.9	1
0	10154	18.95	1
0	10155	18.95	1
0	10173	19	1
0	10174	19	1
0	10176	19	1
0	10177	19	1
0	10198	19.05	1
0	10199	19.05	1
0	10218	19.1	1
0	10219	19.1	1
0	10221	19.1	1
0	10222	19.1	1
0	10246	19.15	1
0	10247	19.15	1
0	10264	19.2	1
0	10265	19.2	1
0	10267	19.2	1
0	10268	19.2	1
0	10289	19.25	1
0	10290	19.25	1
0	10374	19.3	1
0	10375	19.3	1
0	10377	19.3	1
0	10378	19.3	1
0	10399	19.35	1
0	10400	19.35	1
0	10417	19.4	1
0	10418	19.4	1
0	10420	19.4	1
0	10421	19.4	1
0	10442	19.45	1
0	10443	19.45	1
0	10460	19.5	1
0	10461	19.5	1
0	10463	19.5	1
0	10464	19.5	1
0	10485	19.55	1
0	10486	19.55	1
0	10503	19.6	1
0	10504	19.6	1
0	10506	19.6	1
0	10507	19.6	1
0	10528	19.65	1
0	10529	19.65	1
0	10546	19.7	1
0	10547	19.7	1
0	10549	19.7	1
0	10550	19.7	1
0	10571	19.75	1
0	10572	19.75	1
0	10589	19.8	1
0	10590	19.8	1
0	10592	19.8	1
0	10593	19.8	1
0	10660	19.85	1
0	10661	19.85	1
0	10678	19.9	1
0	10679	19.9	1
0	10681	19.9	1
0	10682	19.9	1
0	10703	19.95	1
0	10704	19.95	1
0	10722	20	1
0	10723	20	1
0	10725	20	1
0	10726	20	1
0	10747	20.05	1
0	10748	20.05	1
0	10767	20.1	1
0	10768	20.1	1
0	10770	20.1	1
0	10771	20.1	1
0	10795	20.15	1
0	10796	20.15	1
0	10813	20.2	1
0	10814	20.2	1
0	10816	20.2	1
0	10817	20.2	1
0	10838	20.25	1
0	10839	20.25	1
0	10856	20.3	1
0	10857	20.3	1
0	10859	20.3	1
0	10860	20.3	1
0	10881	20.35	1
0	10882	20.35	1
0	10966	20.4	1
0	10967	20.4	1
0	10969	20.4	1
0	10970	20.4	1
0	10991	20.45	1
0	10992	20.45	1
0	11009	20.5	1
0	11010	20.5	1
0	11012	20.5	1
0	11013	20.5	1
0	11034	20.55	1
0	11035	20.55	1
0	11052	20.6	1
0	11053	20.6	1
0	11055	20.6	1
0	11056	20.6	1
0	11077	20.65	1
0	11078	20.65	1
0	11095	20.7	1
0	11096	20.7	1
0	11098	20.7	1
0	11099	20.7	1
0	11120	20.75	1
0	11121	20.75	1
0	11138	20.8	1
0	11139	20.8	1
0	11141	20.8	1
0	11142	20.8	1
0	11163	20.85	1
0	11164	20.85	1
0	11181	20.9	1
0	11182	20.9	1
0	11184	20.9	1
0	11185	20.9	1
0	11252	20.95	1
0	11253	20.95	1
0	11271	21	1
0	11272	21	1
0	11274	21	1
0	11275	21	1
0	11296	21.05	1
0	11297	21.05	1
0	11316	21.1	1
0	11317	21.1	1
0	11319	21.1	1
0	11320	21.1	1
0	11344	21.15	1
0	11345	21.15	1
0	11362	21.2	1
0	11363	21.2	1
0	11365	21.2	1
0	11366	21.2	1
0	11387	21.25	1
0	11388	21.25	1
0	11405	21.3	1
0	11406	21.3	1
0	11408	21.3	1
0	11409	21.3	1
0	11430	21.35	1
0	11431	21.35	1
0	11448	21.4	1
0	11449	21.4	1
0	11451	21.4	1
0	11452	21.4	1
0	11473	21.45	1
0	11474	21.45	1
0	11558	21.5	1
0	11559	21.5	1
0	11561	21.5	1
0	11562	21.5	1
0	11583	21.55	1
0	11584	21.55	1
0	11601	21.6	1
0	11602	21.6	1
0	11604	21.6	1
0	11605	21.6	1
0	11626	21.65	1
0	11627	21.65	1
0	11644	21.7	1
0	11645	21.7	1
0	11647	21.7	1
0	11648	21.7	1
0	11669	21.75	1
0	11670	21.75	1
0	11687	21.8	1
0	11688	21.8	1
0	11690	21.8	1
0	11691	21.8	1
0	11712	21.85	1
0	11713	21.85	1
0	11730	21.9	1
0	11731	21.9	1
0	11733	21.9	1
0	11734	21.9	1
0	11755	21.95	1
0	11756	21.95	1
0	11774	22	1
0	11775	22	1
0	11777	22	1
0	11778	22	1
0	11845	22.05	1
0	11846	22.05	1
0	11865	22.1	1
0	11866	22.1	1
0	11868	22.1	1
0	11869	22.1	1
0	11893	22.15	1
0	11894	22.15	1
0	11911	22.2	1
0	11912	22.2	1
0	11914	22.2	1
0	11915	22.2	1
0	11936	22.25	1
0	11937	22.25	1
0	11954	22.3	1
0	11955	22.3	1
0	11957	22.3	1
0	11958	22.3	1
0	11979	22.35	1
0	11980	22.35	1
0	11997	22.4	1
0	11998	22.4	1
0	12000	22.4	1
0	12001	22.4	1
0	12022	22.45	1
0	12023	22.45	1
0	12040	22.5	1
0	12041	22.5	1
0	12043	22.5	1
0	12044	22.5	1
0	12065	22.55	1
0	12066	22.55	1
0	12150	22.6	1
0	12151	22.6	1
0	12153	22.6	1
0	12154	22.6	1
0	12175	22.65	1
0	12176	22.65	1
0	12193	22.7	1
0	12194	22.7	1
0	12196	22.7	1
0	12197	22.7	1
0	12218	22.75	1
0	12219	22.75	1
0	12236	22.8	1
0	12237	22.8	1
0	12239	22.8	1
0	12240	22.8	1
0	12261	22.85	1
0	12262	22.85	1
0	12279	22.9	1
0	12280	22.9	1
0	12282	22.9	1
0	12283	22.9	1
0	12304	22.95	1
0	12305	22.95	1
0	12323	23	1
0	12324	23	1
0	12326	23	1
0	12327	23	1
0	12348	23.05	1
0	12349	23.05	1
0	12368	23.1	1
0	12369	23.1	1
0	12371	23.1	1
0	12372	23.1	1
0	12463	23.15	1
0	12464	23.15	1
0	12481	23.2	1
0	12482	23.2	1
0	12484	23.2	1
0	12485	23.2	1
0	12506	23.25	1
0	12507	23.25	1
0	12524	23.3	1
0	12525	23.3	1
0	12527	23.3	1
0	12528	23.3	1
0	12549	23.35	1
0	12550	23.35	1
0	12567	23.4	1
0	12568	23.4	1
0	12570	23.4	1
0	12571	23.4	1
0	12592	23.45	1
0	12593	23.45	1
0	12610	23.5	1
0	12611	23.5	1
0	12613	23.5	1
0	12614	23.5	1
0	12635	23.55	1
0	12636	23.55	1
0	12653	23.6	1
0	12654	23.6	1
0	12656	23.6	1
0	12657	23.6	1
0	12678	23.65	1
0	12679	23.65	1
0	12742	23.7	1
0	12743	23.7	1
0	12745	23.7	1
0	12746	23.7	1
0	12767	23.75	1
0	12768	23.75	1
0	12785	23.8	1
0	12786	23.8	1
0	12788	23.8	1
0	12789	23.8	1
0	12810	23.85	1
0	12811	23.85	1
0	12828	23.9	1
0	12829	23.9	1
0	12831	23.9	1
0	12832	23.9	1
0	12853	23.95	1
0	12854	23.95	1
0	12872	24	1
0	12873	24	1
0	12875	24	1
0	12876	24	1
0	12897	24.05	1
0	12898	24.05	1
0	12917	24.1	1
0	12918	24.1	1
0	12920	24.1	1
0	12921	24.1	1
0	12945	24.15	1
0	12946	24.15	1
0	12963	24.2	1
0	12964	24.2	1
0	12966	24.2	1
0	12967	24.2	1
0	13055	24.25	1
0	13056	24.25	1
0	13073	24.3	1
0	13074	24.3	1
0	13076	24.3	1
0	13077	24.3	1
0	13098	24.35	1
0	13099	24.35	1
0	13116	24.4	1
0	13117	24.4	1
0	13119	24.4	1
0	13120	24.4	1
0	13141	24.45	1
0	13142	24.45	1
0	13159	24.5	1
0	13160	24.5	1
0	13162	24.5	1
0	13163	24.5	1
0	13184	24.55	1
0	13185	24.55	1
0	13202	24.6	1
0	13203	24.6	1
0	13205	24.6	1
0	13206	24.6	1
0	13227	24.65	1
0	13228	24.65	1
0	13245	24.7	1
0	13246	24.7	1
0	13248	24.7	1
0	13249	24.7	1
0	13270	24.75	1
0	13271	24.75	1
0	13334	24.8	1
0	13335	24.8	1
0	13337	24.8	1
0	13338	24.8	1
0	13359	24.85	1
0	13360	24.85	1
0	13377	24.9	1
0	13378	24.9	1
0	13380	24.9	1
0	13381	24.9	1
0	13402	24.95	1
0	13403	24.95	1
0	13421	25	1
0	13422	25	1
0	13424	25	1
0	13425	25	1
0	13446	25.05	1
0	13447	25.05	1
0	13466	25.1	1
0	13467	25.1	1
0	13469	25.1	1
0	13470	25.1	1
0	13494	25.15	1
0	13495	25.15	1
0	13512	25.2	1
0	13513	25.2	1
0	13515	25.2	1
0	13516	25.2	1
0	13537	25.25	1
0	13538	25.25	1
0	13555	25.3	1
0	13556	25.3	1
0	13558	25.3	1
0	13559	25.3	1
0	13647	25.35	1
0	13648	25.35	1
0	13665	25.4	1
0	13666	25.4	1
0	13668	25.4	1
0	13669	25.4	1
0	13690	25.45	1
0	13691	25.45	1
0	13708	25.5	1
0	13709	25.5	1
0	13711	25.5	1
0	13712	25.5	1
0	13733	25.55	1
0	13734	25.55	1
0	13751	25.6	1
0	13752	25.6	1
0	13754	25.6	1
0	13755	25.6	1
0	13776	25.65	1
0	13777	25.65	1
0	13794	25.7	1
0	13795	25.7	1
0	13797	25.7	1
0	13798	25.7	1
0	13819	25.75	1
0	13820	25.75	1
0	13837	25.8	1
0	13838	25.8	1
0	13840	25.8	1
0	13841	25.8	1
0	13862	25.85	1
0	13863	25.85	1
0	13926	25.9	1
0	13927	25.9	1
0	13929	25.9	1
0	13930	25.9	1
0	13951	25.95	1
0	13952	25.95	1
0	13970	26	1
0	13971	26	1
0	13973	26	1
0	13974	26	1
0	13995	26.05	1
0	13996	26.05	1
0	14015	26.1	1
0	14016	26.1	1
0	14018	26.1	1
0	14019	26.1	1
0	14043	26.15	1
0	14044	26.15	1
0	14061	26.2	1
0	14062	26.2	1
0	14064	26.2	1
0	14065	26.2	1
0	14086	26.25	1
0	14087	26.25	1
0	14104	26.3	1
0	14105	26.3	1
0	14107	26.3	1
0	14108	26.3	1
0	14129	26.35	1
0	14130	26.35	1
0	14147	26.4	1
0	14148	26.4	1
0	14150	26.4	1
0	14151	26.4	1
0	14239	26.45	1
0	14240	26.45	1
0	14257	26.5	1
0	14258	26.5	1
0	14260	26.5	1
0	14261	26.5	1
0	14282	26.55	1
0	14283	26.55	1
0	14300	26.6	1
0	14301	26.6	1
0	14303	26.6	1
0	14304	26.6	1
0	14325	26.65	1
0	14326	26.65	1
0	14343	26.7	1
0	14344	26.7	1
0	14346	26.7	1
0	14347	26.7	1
0	14368	26.75	1
0	14369	26.75	1
0	14386	26.8	1
0	14387	26.8	1
0	14389	26.8	1
0	14390	26.8	1
0	14411	26.85	1
0	14412	26.85	1
0	14429	26.9	1
0	14430	26.9	1
0	14432	26.9	1
0	14433	26.9	1
0	14454	26.95	1
0	14455	26.95	1
0	14519	27	1
0	14520	27	1
0	14522	27	1
0	14523	27	1
0	14544	27.05	1
0	14545	27.05	1
0	14564	27.1	1
0	14565	27.1	1
0	14567	27.1	1
0	14568	27.1	1
0	14592	27.15	1
0	14593	27.15	1
0	14610	27.2	1
0	14611	27.2	1
0	14613	27.2	1
0	14614	27.2	1
0	14635	27.25	1
0	14636	27.25	1
0	14653	27.3	1
0	14654	27.3	1
0	14656	27.3	1
0	14657	27.3	1
0	14678	27.35	1
0	14679	27.35	1
0	14696	27.4	1
0	14697	27.4	1
0	14699	27.4	1
0	14700	27.4	1
0	14721	27.45	1
0	14722	27.45	1
0	14739	27.5	1
0	14740	27.5	1
0	14742	27.5	1
0	14743	27.5	1
0	14831	27.55	1
0	14832	27.55	1
0	14849	27.6	1
0	14850	27.6	1
0	14852	27.6	1
0	14853	27.6	1
0	14874	27.65	1
0	14875	27.65	1
0	14892	27.7	1
0	14893	27.7	1
0	14895	27.7	1
0	14896	27.7	1
0	14917	27.75	1
0	14918	27.75	1
0	14935	27.8	1
0	14936	27.8	1
0	14938	27.8	1
0	14939	27.8	1
0	14960	27.85	1
0	14961	27.85	1
0	14978	27.9	1
0	14979	27.9	1
0	14981	27.9	1
0	14982	27.9	1
0	15003	27.95	1
0	15004	27.95	1
0	15022	28	1
0	15023	28	1
0	15025	28	1
0	15026	28	1
0	15047	28.05	1
0	15048	28.05	1
0	15113	28.1	1
0	15114	28.1	1
0	15116	28.1	1
0	15117	28.1	1
0	15141	28.15	1
0	15142	28.15	1
0	15159	28.2	1
0	15160	28.2	1
0	15162	28.2	1
0	15163	28.2	1
0	15184	28.25	1
0	15185	28.25	1
0	15202	28.3	1
0	15203	28.3	1
0	15205	28.3	1
0	15206	28.3	1
0	15227	28.35	1
0	15228	28.35	1
0	15245	28.4	1
0	15246	28.4	1
0	15248	28.4	1
0	15249	28.4	1
0	15270	28.45	1
0	15271	28.45	1
0	15288	28.5	1
0	15289	28.5	1
0	15291	28.5	1
0	15292	28.5	1
0	15313	28.55	1
0	15314	28.55	1
0	15331	28.6	1
0	15332	28.6	1
0	15334	28.6	1
0	15335	28.6	1
0	15423	28.65	1
0	15424	28.65	1
0	15441	28.7	1
0	15442	28.7	1
0	15444	28.7	1
0	15445	28.7	1
0	15466	28.75	1
0	15467	28.75	1
0	15484	28.8	1
0	15485	28.8	1
0	15487	28.8	1
0	15488	28.8	1
0	15509	28.85	1
0	15510	28.85	1
0	15527	28.9	1
0	15528	28.9	1
0	15530	28.9	1
0	15531	28.9	1
0	15552	28.95	1
0	15553	28.95	1
0	15571	29	1
0	15572	29	1
0	15574	29	1
0	15575	29	1
0	15596	29.05	1
0	15597	29.05	1
0	15616	29.1	1
0	15617	29.1	1
0	15619	29.1	1
0	15620	29.1	1
0	15644	29.15	1
0	15645	29.15	1
0	15729	29.2	1
0	15730	29.2	1
0	15732	29.2	1
0	15733	29.2	1
0	15754	29.25	1
0	15755	29.25	1
0	15772	29.3	1
0	15773	29.3	1
0	15775	29.3	1
0	15776	29.3	1
0	15797	29.35	1
0	15798	29.35	1
0	15815	29.4	1
0	15816	29.4	1
0	15818	29.4	1
0	15819	29.4	1
0	15840	29.45	1
0	15841	29.45	1
0	15858	29.5	1
0	15859	29.5	1
0	15861	29.5	1
0	15862	29.5	1
0	15883	29.55	1
0	15884	29.55	1
0	15901	29.6	1
0	15902	29.6	1
0	15904	29.6	1
0	15905	29.6	1
0	15926	29.65	1
0	15927	29.65	1
0	15944	29.7	1
0	15945	29.7	1
0	15947	29.7	1
0	15948	29.7	1
0	16015	29.75	1
0	16016	29.75	1
0	16033	29.8	1
0	16034	29.8	1
0	16036	29.8	1
0	16037	29.8	1
0	16058	29.85	1
0	16059	29.85	1
0	16076	29.9	1
0	16077	29.9	1
0	16079	29.9	1
0	16080	29.9	1
0	16101	29.95	1
0	16102	29.95	1
0	16120	30	1
0	16121	30	1
0	16123	30	1
0	16124	30	1
0	16145	30.05	1
0	16146	30.05	1
0	16165	30.1	1
0	16166	30.1	1
0	16168	30.1	1
0	16169	30.1	1
0	16193	30.15	1
0	16194	30.15	1
0	16211	30.2	1
0	16212	30.2	1
0	16214	30.2	1
0	16215	30.2	1
0	16236	30.25	1
0	16237	30.25	1
0	16321	30.3	1
0	16322	30.3	1
0	16324	30.3	1
0	16325	30.3	1
0	16346	30.35	1
0	16347	30.35	1
0	16364	30.4	1
0	16365	30.4	1
0	16367	30.4	1
0	16368	30.4	1
0	16389	30.45	1
0	16390	30.45	1
0	16407	30.5	1
0	16408	30.5	1
0	16410	30.5	1
0	16411	30.5	1
0	16432	30.55	1
0	16433	30.55	1
0	16450	30.6	1
0	16451	30.6	1
0	16453	30.6	1
0	16454	30.6	1
0	16475	30.65	1
0	16476	30.65	1
0	16493	30.7	1
0	16494	30.7	1
0	16496	30.7	1
0	16497	30.7	1
0	16518	30.75	1
0	16519	30.75	1
0	16536	30.8	1
0	16537	30.8	1
0	16539	30.8	1
0	16540	30.8	1
0	16607	30.85	1
0	16608	30.85	1
0	16625	30.9	1
0	16626	30.9	1
0	16628	30.9	1
0	16629	30.9	1
0	16650	30.95	1
0	16651	30.95	1
0	16669	31	1
0	16670	31	1
0	16672	31	1
0	16673	31	1
0	16694	31.05	1
0	16695	31.05	1
0	16714	31.1	1
0	16715	31.1	1
0	16717	31.1	1
0	16718	31.1	1
0	16742	31.15	1
0	16743	31.15	1
0	16760	31.2	1
0	16761	31.2	1
0	16763	31.2	1
0	16764	31.2	1
0	16785	31.25	1
0	16786	31.25	1
0	16803	31.3	1
0	16804	31.3	1
0	16806	31.3	1
0	16807	31.3	1
0	16828	31.35	1
0	16829	31.35	1
0	16913	31.4	1
0	16914	31.4	1
0	16916	31.4	1
0	16917	31.4	1
0	16938	31.45	1
0	16939	31.45	1
0	16956	31.5	1
0	16957	31.5	1
0	16959	31.5	1
0	16960	31.5	1
0	16981	31.55	1
0	16982	31.55	1
0	16999	31.6	1
0	17000	31.6	1
0	17002	31.6	1
0	17003	31.6	1
0	17024	31.65	1
0	17025	31.65	1
0	17042	31.7	1
0	17043	31.7	1
0	17045	31.7	1
0	17046	31.7	1
0	17067	31.75	1
0	17068	31.75	1
0	17085	31.8	1
0	17086	31.8	1
0	17088	31.8	1
0	17089	31.8	1
0	17110	31.85	1
0	17111	31.85	1
0	17128	31.9	1
0	17129	31.9	1
0	17131	31.9	1
0	17132	31.9	1
0	17199	31.95	1
0	17200	31.95	1
0	17218	32	1
0	17219	32	1
0	17221	32	1
0	17222	32	1
0	17243	32.05	1
0	17244	32.05	1
0	17263	32.1	1
0	17264	32.1	1
0	17266	32.1	1
0	17267	32.1	1
0	17291	32.15	1
0	17292	32.15	1
0	17309	32.2	1
0	17310	32.2	1
0	17312	32.2	1
0	17313	32.2	1
0	17334	32.25	1
0	17335	32.25	1
0	17352	32.3	1
0	17353	32.3	1
0	17355	32.3	1
0	17356	32.3	1
0	17377	32.35	1
0	17378	32.35	1
0	17395	32.4	1
0	17396	32.4	1
0	17398	32.4	1
0	17399	32.4	1
0	17420	32.45	1
0	17421	32.45	1
0	17505	32.5	1
0	17506	32.5	1
0	17508	32.5	1
0	17509	32.5	1
0	17530	32.55	1
0	17531	32.55	1
0	17548	32.6	1
0	17549	32.6	1
0	17551	32.6	1
0	17552	32.6	1
0	17573	32.65	1
0	17574	32.65	1
0	17591	32.7	1
0	17592	32.7	1
0	17594	32.7	1
0	17595	32.7	1
0	17616	32.75	1
0	17617	32.75	1
0	17634	32.8	1
0	17635	32.8	1
0	17637	32.8	1
0	17638	32.8	1
0	17659	32.85	1
0	17660	32.85	1
0	17677	32.9	1
0	17678	32.9	1
0	17680	32.9	1
0	17681	32.9	1
0	17702	32.95	1
0	17703	32.95	1
0	17721	33	1
0	17722	33	1
0	17724	33	1
0	17725	33	1
0	17792	33.05	1
0	17793	33.05	1
0	17812	33.1	1
0	17813	33.1	1
0	17815	33.1	1
0	17816	33.1	1
0	17840	33.15	1
0	17841	33.15	1
0	17858	33.2	1
0	17859	33.2	1
0	17861	33.2	1
0	17862	33.2	1
0	17883	33.25	1
0	17884	33.25	1
0	17901	33.3	1
0	17902	33.3	1
0	17904	33.3	1
0	17905	33.3	1
0	17926	33.35	1
0	17927	33.35	1
0	17944	33.4	1
0	17945	33.4	1
0	17947	33.4	1
0	17948	33.4	1
0	17969	33.45	1
0	17970	33.45	1
0	17987	33.5	1
0	17988	33.5	1
0	17990	33.5	1
0	17991	33.5	1
0	18012	33.55	1
0	18013	33.55	1
0	18097	33.6	1
0	18098	33.6	1
0	18100	33.6	1
0	18101	33.6	1
0	18122	33.65	1
0	18123	33.65	1
0	18140	33.7	1
0	18141	33.7	1
0	18143	33.7	1
0	18144	33.7	1
0	18165	33.75	1
0	18166	33.75	1
0	18183	33.8	1
0	18184	33.8	1
0	18186	33.8	1
0	18187	33.8	1
0	18208	33.85	1
0	18209	33.85	1
0	18226	33.9	1
0	18227	33.9	1
0	18229	33.9	1
0	18230	33.9	1
0	18251	33.95	1
0	18252	33.95	1
0	18270	34	1
0	18271	34	1
0	18273	34	1
0	18274	34	1
0	18295	34.05	1
0	18296	34.05	1
0	18315	34.1	1
0	18316	34.1	1
0	18318	34.1	1
0	18319	34.1	1
0	18410	34.15	1
0	18411	34.15	1
0	18428	34.2	1
0	18429	34.2	1
0	18431	34.2	1
0	18432	34.2	1
0	18453	34.25	1
0	18454	34.25	1
0	18471	34.3	1
0	18472	34.3	1
0	18474	34.3	1
0	18475	34.3	1
0	18496	34.35	1
0	18497	34.35	1
0	18514	34.4	1
0	18515	34.4	1
0	18517	34.4	1
0	18518	34.4	1
0	18539	34.45	1
0	18540	34.45	1
0	18557	34.5	1
0	18558	34.5	1
0	18560	34.5	1
0	18561	34.5	1
0	18582	34.55	1
0	18583	34.55	1
0	18600	34.6	1
0	18601	34.6	1
0	18603	34.6	1
0	18604	34.6	1
0	18625	34.65	1
0	18626	34.65	1
0	18689	34.7	1
0	18690	34.7	1
0	18692	34.7	1
0	18693	34.7	1
0	18714	34.75	1
0	18715	34.75	1
0	18732	34.8	1
0	18733	34.8	1
0	18735	34.8	1
0	18736	34.8	1
0	18757	34.85	1
0	18758	34.85	1
0	18775	34.9	1
0	18776	34.9	1
0	18778	34.9	1
0	18779	34.9	1
0	18800	34.95	1
0	18801	34.95	1
0	18819	35	1
0	18820	35	1
0	18822	35	1
0	18823	35	1
0	18844	35.05	1
0	18845	35.05	1
0	18864	35.1	1
0	18865	35.1	1
0	18867	35.1	1
0	18868	35.1	1
0	18892	35.15	1
0	18893	35.15	1
0	18910	35.2	1
0	18911	35.2	1
0	18913	35.2	1
0	18914	35.2	1
0	19002	35.25	1
0	19003	35.25	1
0	19020	35.3	1
0	19021	35.3	1
0	19023	35.3	1
0	19024	35.3	1
0	19045	35.35	1
0	19046	35.35	1
0	19063	35.4	1
0	19064	35.4	1
0	19066	35.4	1
0	19067	35.4	1
0	19088	35.45	1
0	19089	35.45	1
0	19106	35.5	1
0	19107	35.5	1
0	19109	35.5	1
0	19110	35.5	1
0	19131	35.55	1
0	19132	35.55	1
0	19149	35.6	1
0	19150	35.6	1
0	19152	35.6	1
0	19153	35.6	1
0	19174	35.65	1
0	19175	35.65	1
0	19192	35.7	1
0	19193	35.7	1
0	19195	35.7	1
0	19196	35.7	1
0	19217	35.75	1
0	19218	35.75	1
0	19281	35.8	1
0	19282	35.8	1
0	19284	35.8	1
0	19285	35.8	1
0	19306	35.85	1
0	19307	35.85	1
0	19324	35.9	1
0	19325	35.9	1
0	19327	35.9	1
0	19328	35.9	1
0	19349	35.95	1
0	19350	35.95	1
0	19368	36	1
0	19369	36	1
0	19371	36	1
0	19372	36	1
0	19393	36.05	1
0	19394	36.05	1
0	19413	36.1	1
0	19414	36.1	1
0	19416	36.1	1
0	19417	36.1	1
0	19441	36.15	1
0	19442	36.15	1
0	19459	36.2	1
0	19460	36.2	1
0	19462	36.2	1
0	19463	36.2	1
0	19484	36.25	1
0	19485	36.25	1
0	19502	36.3	1
0	19503	36.3	1
0	19505	36.3	1
0	19506	36.3	1
0	19594	36.35	1
0	19595	36.35	1
0	19612	36.4	1
0	19613	36.4	1
0	19615	36.4	1
0	19616	36.4	1
0	19637	36.45	1
0	19638	36.45	1
0	19655	36.5	1
0	19656	36.5	1
0	19658	36.5	1
0	19659	36.5	1
0	19680	36.55	1
0	19681	36.55	1
0	19698	36.6	1
0	19699	36.6	1
0	19701	36.6	1
0	19702	36.6	1
0	19723	36.65	1
0	19724	36.65	1
0	19741	36.7	1
0	19742	36.7	1
0	19744	36.7	1
0	19745	36.7	1
0	19766	36.75	1
0	19767	36.75	1
0	19784	36.8	1
0	19785	36.8	1
0	19787	36.8	1
0	19788	36.8	1
0	19809	36.85	1
0	19810	36.85	1
0	19873	36.9	1
0	19874	36.9	1
0	19876	36.9	1
0	19877	36.9	1
0	19898	36.95	1
0	19899	36.95	1
0	19917	37	1
0	19918	37	1
0	19920	37	1
0	19921	37	1
0	19942	37.05	1
0	19943	37.05	1
0	19962	37.1	1
0	19963	37.1	1
0	19965	37.1	1
0	19966	37.1	1
0	19990	37.15	1
0	19991	37.15	1
0	20008	37.2	1
0	20009	37.2	1
0	20011	37.2	1
0	20012	37.2	1
0	20033	37.25	1
0	20034	37.25	1
0	20051	37.3	1
0	20052	37.3	1
0	20054	37.3	1
0	20055	37.3	1
0	20076	37.35	1
0	20077	37.35	1
0	20094	37.4	1
0	20095	37.4	1
0	20097	37.4	1
0	20098	37.4	1
0	20186	37.45	1
0	20187	37.45	1
0	20204	37.5	1
0	20205	37.5	1
0	20207	37.5	1
0	20208	37.5	1
0	20229	37.55	1
0	20230	37.55	1
0	20247	37.6	1
0	20248	37.6	1
0	20250	37.6	1
0	20251	37.6	1
0	20272	37.65	1
0	20273	37.65	1
0	20290	37.7	1
0	20291	37.7	1
0	20293	37.7	1
0	20294	37.7	1
0	20315	37.75	1
0	20316	37.75	1
0	20333	37.8	1
0	20334	37.8	1
0	20336	37.8	1
0	20337	37.8	1
0	20358	37.85	1
0	20359	37.85	1
0	20376	37.9	1
0	20377	37.9	1
0	20379	37.9	1
0	20380	37.9	1
0	20401	37.95	1
0	20402	37.95	1
0	20466	38	1
0	20467	38	1
0	20469	38	1
0	20470	38	1
0	20491	38.05	1
0	20492	38.05	1
0	20511	38.1	1
0	20512	38.1	1
0	20514	38.1	1
0	20515	38.1	1
0	20539	38.15	1
0	20540	38.15	1
0	20557	38.2	1
0	20558	38.2	1
0	20560	38.2	1
0	20561	38.2	1
0	20582	38.25	1
0	20583	38.25	1
0	20600	38.3	1
0	20601	38.3	1
0	20603	38.3	1
0	20604	38.3	1
0	20625	38.35	1
0	20626	38.35	1
0	20643	38.4	1
0	20644	38.4	1
0	20646	38.4	1
0	20647	38.4	1
0	20668	38.45	1
0	20669	38.45	1
0	20686	38.5	1
0	20687	38.5	1
0	20689	38.5	1
0	20690	38.5	1
0	20778	38.55	1
0	20779	38.55	1
0	20796	38.6	1
0	20797	38.6	1
0	20799	38.6	1
0	20800	38.6	1
0	20821	38.65	1
0	20822	38.65	1
0	20839	38.7	1
0	20840	38.7	1
0	20842	38.7	1
0	20843	38.7	1
0	20864	38.75	1
0	20865	38.75	1
0	20882	38.8	1
0	20883	38.8	1
0	20885	38.8	1
0	20886	38.8	1
0	20907	38.85	1
0	20908	38.85	1
0	20925	38.9	1
0	20926	38.9	1
0	20928	38.9	1
0	20929	38.9	1
0	20950	38.95	1
0	20951	38.95	1
0	20969	39	1
0	20970	39	1
0	20972	39	1
0	20973	39	1
0	20994	39.05	1
0	20995	39.05	1
0	21060	39.1	1
0	21061	39.1	1
0	21063	39.1	1
0	21064	39.1	1
0	21088	39.15	1
0	21089	39.15	1
0	21106	39.2	1
0	21107	39.2	1
0	21109	39.2	1
0	21110	39.2	1
0	21131	39.25	1
0	21132	39.25	1
0	21149	39.3	1
0	21150	39.3	1
0	21152	39.3	1
0	21153	39.3	1
0	21174	39.35	1
0	21175	39.35	1
0	21192	39.4	1
0	21193	39.4	1
0	21195	39.4	1
0	21196	39.4	1
0	21217	39.45	1
0	21218	39.45	1
0	21235	39.5	1
0	21236	39.5	1
0	21238	39.5	1
0	21239	39.5	1
0	21260	39.55	1
0	21261	39.55	1
0	21278	39.6	1
0	21279	39.6	1
0	21281	39.6	1
0	21282	39.6	1
0	21370	39.65	1
0	21371	39.65	1
0	21388	39.7	1
0	21389	39.7	1
0	21391	39.7	1
0	21392	39.7	1
0	21413	39.75	1
0	21414	39.75	1
0	21431	39.8	1
0	21432	39.8	1
0	21434	39.8	1
0	21435	39.8	1
0	21456	39.85	1
0	21457	39.85	1
0	21474	39.9	1
0	21475	39.9	1
0	21477	39.9	1
0	21478	39.9	1
0	21499	39.95	1
0	21500	39.95	1
0	21518	40	1
0	21519	40	1
0	21521	40	1
0	21522	40	1
0	21543	40.05	1
0	21544	40.05	1
0	21563	40.1	1
0	21564	40.1	1
0	21566	40.1	1
0	21567	40.1	1
0	21591	40.15	1
0	21592	40.15	1
0	21676	40.2	1
0	21677	40.2	1
0	21679	40.2	1
0	21680	40.2	1
0	21701	40.25	1
0	21702	40.25	1
0	21719	40.3	1
0	21720	40.3	1
0	21722	40.3	1
0	21723	40.3	1
0	21744	40.35	1
0	21745	40.35	1
0	21762	40.4	1
0	21763	40.4	1
0	21765	40.4	1
0	21766	40.4	1
0	21787	40.45	1
0	21788	40.45	1
0	21805	40.5	1
0	21806	40.5	1
0	21808	40.5	1
0	21809	40.5	1
0	21830	40.55	1
0	21831	40.55	1
0	21848	40.6	1
0	21849	40.6	1
0	21851	40.6	1
0	21852	40.6	1
0	21873	40.65	1
0	21874	40.65	1
0	21891	40.7	1
0	21892	40.7	1
0	21894	40.7	1
0	21895	40.7	1
0	21962	40.75	1
0	21963	40.75	1
0	21980	40.8	1
0	21981	40.8	1
0	21983	40.8	1
0	21984	40.8	1
0	22005	40.85	1
0	22006	40.85	1
0	22023	40.9	1
0	22024	40.9	1
0	22026	40.9	1
0	22027	40.9	1
0	22048	40.95	1
0	22049	40.95	1
0	22067	41	1
0	22068	41	1
0	22070	41	1
0	22071	41	1
0	22092	41.05	1
0	22093	41.05	1
0	22112	41.1	1
0	22113	41.1	1
0	22115	41.1	1
0	22116	41.1	1
0	22140	41.15	1
0	22141	41.15	1
0	22158	41.2	1
0	22159	41.2	1
0	22161	41.2	1
0	22162	41.2	1
0	22183	41.25	1
0	22184	41.25	1
0	22268	41.3	1
0	22269	41.3	1
0	22271	41.3	1
0	22272	41.3	1
0	22293	41.35	1
0	22294	41.35	1
0	22311	41.4	1
0	22312	41.4	1
0	22314	41.4	1
0	22315	41.4	1
0	22336	41.45	1
0	22337	41.45	1
0	22354	41.5	1
0	22355	41.5	1
0	22357	41.5	1
0	22358	41.5	1
0	22379	41.55	1
0	22380	41.55	1
0	22397	41.6	1
0	22398	41.6	1
0	22400	41.6	1
0	22401	41.6	1
0	22422	41.65	1
0	22423	41.65	1
0	22440	41.7	1
0	22441	41.7	1
0	22443	41.7	1
0	22444	41.7	1
0	22465	41.75	1
0	22466	41.75	1
0	22483	41.8	1
0	22484	41.8	1
0	22486	41.8	1
0	22487	41.8	1
0	22554	41.85	1
0	22555	41.85	1
0	22572	41.9	1
0	22573	41.9	1
0	22575	41.9	1
0	22576	41.9	1
0	22597	41.95	1
0	22598	41.95	1
0	22616	42	1
0	22617	42	1
0	22619	42	1
0	22620	42	1
0	22641	42.05	1
0	22642	42.05	1
0	22661	42.1	1
0	22662	42.1	1
0	22664	42.1	1
0	22665	42.1	1
0	22689	42.15	1
0	22690	42.15	1
0	22707	42.2	1
0	22708	42.2	1
0	22710	42.2	1
0	22711	42.2	1
0	22732	42.25	1
0	22733	42.25	1
0	22750	42.3	1
0	22751	42.3	1
0	22753	42.3	1
0	22754	42.3	1
0	22775	42.35	1
0	22776	42.35	1
0	22860	42.4	1
0	22861	42.4	1
0	22863	42.4	1
0	22864	42.4	1
0	22885	42.45	1
0	22886	42.45	1
0	22903	42.5	1
0	22904	42.5	1
0	22906	42.5	1
0	22907	42.5	1
0	22928	42.55	1
0	22929	42.55	1
0	22946	42.6	1
0	22947	42.6	1
0	22949	42.6	1
0	22950	42.6	1
0	22971	42.65	1
0	22972	42.65	1
0	22989	42.7	1
0	22990	42.7	1
0	22992	42.7	1
0	22993	42.7	1
0	23014	42.75	1
0	23015	42.75	1
0	23032	42.8	1
0	23033	42.8	1
0	23035	42.8	1
0	23036	42.8	1
0	23057	42.85	1
0	23058	42.85	1
0	23075	42.9	1
0	23076	42.9	1
0	23078	42.9	1
0	23079	42.9	1
0	23146	42.95	1
0	23147	42.95	1
0	23165	43	1
0	23166	43	1
0	23168	43	1
0	23169	43	1
0	23190	43.05	1
0	23191	43.05	1
0	23210	43.1	1
0	23211	43.1	1
0	23213	43.1	1
0	23214	43.1	1
0	23238	43.15	1
0	23239	43.15	1
0	23256	43.2	1
0	23257	43.2	1
0	23259	43.2	1
0	23260	43.2	1
0	23281	43.25	1
0	23282	43.25	1
0	23299	43.3	1
0	23300	43.3	1
0	23302	43.3	1
0	23303	43.3	1
0	23324	43.35	1
0	23325	43.35	1
0	23342	43.4	1
0	23343	43.4	1
0	23345	43.4	1
0	23346	43.4	1
0	23367	43.45	1
0	23368	43.45	1
0	23434	43.5	1
0	23435	43.5	1
0	23437	43.5	1
0	23438	43.5	1
0	23459	43.55	1
0	23460	43.55	1
0	23477	43.6	1
0	23478	43.6	1
0	23480	43.6	1
0	23481	43.6	1
0	23502	43.65	1
0	23503	43.65	1
0	23520	43.7	1
0	23521	43.7	1
0	23523	43.7	1
0	23524	43.7	1
0	23545	43.75	1
0	23546	43.75	1
0	23563	43.8	1
0	23564	43.8	1
0	23566	43.8	1
0	23567	43.8	1
0	23588	43.85	1
0	23589	43.85	1
0	23606	43.9	1
0	23607	43.9	1
0	23609	43.9	1
0	23610	43.9	1
0	23631	43.95	1
0	23632	43.95	1
0	23650	44	1
0	23651	44	1
0	23653	44	1
0	23654	44	1
0	23698	44.05	1
0	23699	44.05	1
0	23718	44.1	1
0	23719	44.1	1
0	23721	44.1	1
0	23722	44.1	1
0	23746	44.15	1
0	23747	44.15	1
0	23808	44.2	1
0	23809	44.2	1
0	23811	44.2	1
0	23812	44.2	1
0	23833	44.25	1
0	23834	44.25	1
0	23851	44.3	1
0	23852	44.3	1
0	23854	44.3	1
0	23855	44.3	1
0	23876	44.35	1
0	23877	44.35	1
0	23894	44.4	1
0	23895	44.4	1
0	23897	44.4	1
0	23898	44.4	1
0	23919	44.45	1
0	23920	44.45	1
0	23937	44.5	1
0	23938	44.5	1
0	23940	44.5	1
0	23941	44.5	1
0	23962	44.55	1
0	23963	44.55	1
0	24003	44.6	1
0	24004	44.6	1
0	24006	44.6	1
0	24007	44.6	1
0	24028	44.65	1
0	24029	44.65	1
0	24046	44.7	1
0	24047	44.7	1
0	24049	44.7	1
0	24050	44.7	1
0	24088	44.75	1
0	24089	44.75	1
0	24106	44.8	1
0	24107	44.8	1
0	24109	44.8	1
0	24110	44.8	1
0	24131	44.85	1
0	24132	44.85	1
0	24149	44.9	1
0	24150	44.9	1
0	24152	44.9	1
0	24153	44.9	1
0	24174	44.95	1
0	24175	44.95	1
0	24193	45	1
0	24194	45	1
0	24196	45	1
0	24197	45	1
0	24218	45.05	1
0	24219	45.05	1
0	24238	45.1	1
0	24239	45.1	1
0	24241	45.1	1
0	24242	45.1	1
0	24289	45.15	1
0	24290	45.15	1
0	24307	45.2	1
0	24308	45.2	1
0	24310	45.2	1
0	24311	45.2	1
0	24332	45.25	1
0	24333	45.25	1
0	24394	45.3	1
0	24395	45.3	1
0	24397	45.3	1
0	24398	45.3	1
0	24419	45.35	1
0	24420	45.35	1
0	24437	45.4	1
0	24438	45.4	1
0	24440	45.4	1
0	24441	45.4	1
0	24462	45.45	1
0	24463	45.45	1
0	24480	45.5	1
0	24481	45.5	1
0	24483	45.5	1
0	24484	45.5	1
0	24505	45.55	1
0	24506	45.55	1
0	24523	45.6	1
0	24524	45.6	1
0	24526	45.6	1
0	24527	45.6	1
0	24548	45.65	1
0	24549	45.65	1
0	24589	45.7	1
0	24590	45.7	1
0	24592	45.7	1
0	24593	45.7	1
0	24614	45.75	1
0	24615	45.75	1
0	24632	45.8	1
0	24633	45.8	1
0	24635	45.8	1
0	24636	45.8	1
0	24680	45.85	1
0	24681	45.85	1
0	24698	45.9	1
0	24699	45.9	1
0	24701	45.9	1
0	24702	45.9	1
0	24723	45.95	1
0	24724	45.95	1
0	24742	46	1
0	24743	46	1
0	24745	46	1
0	24746	46	1
0	24767	46.05	1
0	24768	46.05	1
0	24787	46.1	1
0	24788	46.1	1
0	24790	46.1	1
0	24791	46.1	1
0	24815	46.15	1
0	24816	46.15	1
0	24833	46.2	1
0	24834	46.2	1
0	24836	46.2	1
0	24837	46.2	1
0	24881	46.25	1
0	24882	46.25	1
0	24899	46.3	1
0	24900	46.3	1
0	24902	46.3	1
0	24903	46.3	1
0	24924	46.35	1
0	24925	46.35	1
0	24986	46.4	1
0	24987	46.4	1
0	24989	46.4	1
0	24990	46.4	1
0	25011	46.45	1
0	25012	46.45	1
0	25029	46.5	1
0	25030	46.5	1
0	25032	46.5	1
0	25033	46.5	1
0	25054	46.55	1
0	25055	46.55	1
0	25072	46.6	1
0	25073	46.6	1
0	25075	46.6	1
0	25076	46.6	1
0	25097	46.65	1
0	25098	46.65	1
0	25115	46.7	1
0	25116	46.7	1
0	25118	46.7	1
0	25119	46.7	1
0	25140	46.75	1
0	25141	46.75	1
0	25181	46.8	1
0	25182	46.8	1
0	25184	46.8	1
0	25185	46.8	1
0	25206	46.85	1
0	25207	46.85	1
0	25224	46.9	1
0	25225	46.9	1
0	25227	46.9	1
0	25228	46.9	1
0	25272	46.95	1
0	25273	46.95	1
0	25291	47	1
0	25292	47	1
0	25294	47	1
0	25295	47	1
0	25316	47.05	1
0	25317	47.05	1
0	25336	47.1	1
0	25337	47.1	1
0	25339	47.1	1
0	25340	47.1	1
0	25364	47.15	1
0	25365	47.15	1
0	25382	47.2	1
0	25383	47.2	1
0	25385	47.2	1
0	25386	47.2	1
0	25407	47.25	1
0	25408	47.25	1
0	25425	47.3	1
0	25426	47.3	1
0	25428	47.3	1
0	25429	47.3	1
0	25473	47.35	1
0	25474	47.35	1
0	25491	47.4	1
0	25492	47.4	1
0	25494	47.4	1
0	25495	47.4	1
0	25516	47.45	1
0	25517	47.45	1
0	25578	47.5	1
0	25579	47.5	1
0	25581	47.5	1
0	25582	47.5	1
0	25603	47.55	1
0	25604	47.55	1
0	25621	47.6	1
0	25622	47.6	1
0	25624	47.6	1
0	25625	47.6	1
0	25646	47.65	1
0	25647	47.65	1
0	25664	47.7	1
0	25665	47.7	1
0	25667	47.7	1
0	25668	47.7	1
0	25689	47.75	1
0	25690	47.75	1
0	25707	47.8	1
0	25708	47.8	1
0	25710	47.8	1
0	25711	47.8	1
0	25732	47.85	1
0	25733	47.85	1
0	25773	47.9	1
0	25774	47.9	1
0	25776	47.9	1
0	25777	47.9	1
0	25798	47.95	1
0	25799	47.95	1
0	25817	48	1
0	25818	48	1
0	25820	48	1
0	25821	48	1
0	25865	48.05	1
0	25866	48.05	1
0	25885	48.1	1
0	25886	48.1	1
0	25888	48.1	1
0	25889	48.1	1
0	25913	48.15	1
0	25914	48.15	1
0	25931	48.2	1
0	25932	48.2	1
0	25934	48.2	1
0	25935	48.2	1
0	25956	48.25	1
0	25957	48.25	1
0	25974	48.3	1
0	25975	48.3	1
0	25977	48.3	1
0	25978	48.3	1
0	25999	48.35	1
0	26000	48.35	1
0	26017	48.4	1
0	26018	48.4	1
0	26020	48.4	1
0	26021	48.4	1
0	26047	48.45	1
0	26048	48.45	1
0	26065	48.5	1
0	26066	48.5	1
0	26068	48.5	1
0	26069	48.5	1
0	26090	48.55	1
0	26091	48.55	1
0	26108	48.6	1
0	26109	48.6	1
0	26111	48.6	1
0	26112	48.6	1
0	26133	48.65	1
0	26134	48.65	1
0	26151	48.7	1
0	26152	48.7	1
0	26154	48.7	1
0	26155	48.7	1
0	26176	48.75	1
0	26177	48.75	1
0	26194	48.8	1
0	26195	48.8	1
0	26197	48.8	1
0	26198	48.8	1
0	26219	48.85	1
0	26220	48.85	1
0	26237	48.9	1
0	26238	48.9	1
0	26240	48.9	1
0	26241	48.9	1
0	26262	48.95	1
0	26263	48.95	1
0	26281	49	1
0	26282	49	1
0	26284	49	1
0	26285	49	1
0	26306	49.05	1
0	26307	49.05	1
0	26326	49.1	1
0	26327	49.1	1
0	26329	49.1	1
0	26330	49.1	1
0	26354	49.15	1
0	26355	49.15	1
0	26372	49.2	1
0	26373	49.2	1
0	26375	49.2	1
0	26376	49.2	1
0	26397	49.25	1
0	26398	49.25	1
0	26415	49.3	1
0	26416	49.3	1
0	26418	49.3	1
0	26419	49.3	1
0	26440	49.35	1
0	26441	49.35	1
0	26458	49.4	1
0	26459	49.4	1
0	26461	49.4	1
0	26462	49.4	1
0	26483	49.45	1
0	26484	49.45	1
0	26501	49.5	1
0	26502	49.5	1
0	26504	49.5	1
0	26505	49.5	1
0	26526	49.55	1
0	26527	49.55	1
0	26544	49.6	1
0	26545	49.6	1
0	26547	49.6	1
0	26548	49.6	1
0	26626	49.65	1
0	26627	49.65	1
0	26647	49.7	1
0	26648	49.7	1
0	26650	49.7	1
0	26651	49.7	1
0	26672	49.75	1
0	26673	49.75	1
0	26713	49.8	1
0	26714	49.8	1
0	26716	49.8	1
0	26717	49.8	1
0	26738	49.85	1
0	26739	49.85	1
0	26756	49.9	1
0	26757	49.9	1
0	26759	49.9	1
0	26760	49.9	1
0	26781	49.95	1
0	26782	49.95	1
0	26800	50	1
0	26801	50	1
0	26803	50	1
0	26804	50	1
0	26825	50.05	1
0	26826	50.05	1
0	26845	50.1	1
0	26846	50.1	1
0	26847	50.1	1
0	26848	50.1	1
0	26872	50.15	1
0	26873	50.15	1
0	26947	50.2	1
0	26948	50.2	1
0	26949	50.2	1
0	26950	50.2	1
0	26979	50.25	1
0	26980	50.25	1
0	26997	50.3	1
0	26998	50.3	1
0	26999	50.3	1
0	27000	50.3	1
0	27044	50.35	1
0	27045	50.35	1
0	27062	50.4	1
0	27063	50.4	1
0	27064	50.4	1
0	27065	50.4	1
0	27086	50.45	1
0	27087	50.45	1
0	27104	50.5	1
0	27105	50.5	1
0	27106	50.5	1
0	27107	50.5	1
0	27128	50.55	1
0	27129	50.55	1
0	27146	50.6	1
0	27147	50.6	1
0	27148	50.6	1
0	27149	50.6	1
0	27170	50.65	1
0	27171	50.65	1
0	27188	50.7	1
0	27189	50.7	1
0	27190	50.7	1
0	27191	50.7	1
0	27235	50.75	1
0	27236	50.75	1
0	27253	50.8	1
0	27254	50.8	1
0	27255	50.8	1
0	27256	50.8	1
0	27277	50.85	1
0	27278	50.85	1
0	27318	50.9	1
0	27319	50.9	1
0	27320	50.9	1
0	27321	50.9	1
0	27342	50.95	1
0	27343	50.95	1
0	27361	51	1
0	27362	51	1
0	27363	51	1
0	27364	51	1
0	27385	51.05	1
0	27386	51.05	1
0	27405	51.1	1
0	27406	51.1	1
0	27407	51.1	1
0	27408	51.1	1
0	27432	51.15	1
0	27433	51.15	1
0	27450	51.2	1
0	27451	51.2	1
0	27452	51.2	1
0	27453	51.2	1
0	27474	51.25	1
0	27475	51.25	1
0	27536	51.3	1
0	27537	51.3	1
0	27538	51.3	1
0	27539	51.3	1
0	27560	51.35	1
0	27561	51.35	1
0	27578	51.4	1
0	27579	51.4	1
0	27580	51.4	1
0	27581	51.4	1
0	27625	51.45	1
0	27626	51.45	1
0	27643	51.5	1
0	27644	51.5	1
0	27645	51.5	1
0	27646	51.5	1
0	27667	51.55	1
0	27668	51.55	1
0	27685	51.6	1
0	27686	51.6	1
0	27687	51.6	1
0	27688	51.6	1
0	27709	51.65	1
0	27710	51.65	1
0	27727	51.7	1
0	27728	51.7	1
0	27729	51.7	1
0	27730	51.7	1
0	27751	51.75	1
0	27752	51.75	1
0	27769	51.8	1
0	27770	51.8	1
0	27771	51.8	1
0	27772	51.8	1
0	27816	51.85	1
0	27817	51.85	1
0	27834	51.9	1
0	27835	51.9	1
0	27836	51.9	1
0	27837	51.9	1
0	27858	51.95	1
0	27859	51.95	1
0	27900	52	1
0	27901	52	1
0	27902	52	1
0	27903	52	1
0	27924	52.05	1
0	27925	52.05	1
0	27944	52.1	1
0	27945	52.1	1
0	27946	52.1	1
0	27947	52.1	1
0	27971	52.15	1
0	27972	52.15	1
0	27989	52.2	1
0	27990	52.2	1
0	27991	52.2	1
0	27992	52.2	1
0	28013	52.25	1
0	28014	52.25	1
0	28031	52.3	1
0	28032	52.3	1
0	28033	52.3	1
0	28034	52.3	1
0	28055	52.35	1
0	28056	52.35	1
0	28117	52.4	1
0	28118	52.4	1
0	28119	52.4	1
0	28120	52.4	1
0	28141	52.45	1
0	28142	52.45	1
0	28159	52.5	1
0	28160	52.5	1
0	28161	52.5	1
0	28162	52.5	1
0	28206	52.55	1
0	28207	52.55	1
0	28224	52.6	1
0	28225	52.6	1
0	28226	52.6	1
0	28227	52.6	1
0	28248	52.65	1
0	28249	52.65	1
0	28266	52.7	1
0	28267	52.7	1
0	28268	52.7	1
0	28269	52.7	1
0	28290	52.75	1
0	28291	52.75	1
0	28308	52.8	1
0	28309	52.8	1
0	28310	52.8	1
0	28311	52.8	1
0	28332	52.85	1
0	28333	52.85	1
0	28350	52.9	1
0	28351	52.9	1
0	28352	52.9	1
0	28353	52.9	1
0	28397	52.95	1
0	28398	52.95	1
0	28416	53	1
0	28417	53	1
0	28418	53	1
0	28419	53	1
0	28440	53.05	1
0	28441	53.05	1
0	28483	53.1	1
0	28484	53.1	1
0	28485	53.1	1
0	28486	53.1	1
0	28510	53.15	1
0	28511	53.15	1
0	28528	53.2	1
0	28529	53.2	1
0	28530	53.2	1
0	28531	53.2	1
0	28552	53.25	1
0	28553	53.25	1
0	28570	53.3	1
0	28571	53.3	1
0	28572	53.3	1
0	28573	53.3	1
0	28594	53.35	1
0	28595	53.35	1
0	28612	53.4	1
0	28613	53.4	1
0	28614	53.4	1
0	28615	53.4	1
0	28636	53.45	1
0	28637	53.45	1
0	28698	53.5	1
0	28699	53.5	1
0	28700	53.5	1
0	28701	53.5	1
0	28722	53.55	1
0	28723	53.55	1
0	28740	53.6	1
0	28741	53.6	1
0	28742	53.6	1
0	28743	53.6	1
0	28787	53.65	1
0	28788	53.65	1
0	28805	53.7	1
0	28806	53.7	1
0	28807	53.7	1
0	28808	53.7	1
0	28829	53.75	1
0	28830	53.75	1
0	28847	53.8	1
0	28848	53.8	1
0	28849	53.8	1
0	28850	53.8	1
0	28871	53.85	1
0	28872	53.85	1
0	28889	53.9	1
0	28890	53.9	1
0	28891	53.9	1
0	28892	53.9	1
0	28913	53.95	1
0	28914	53.95	1
0	28932	54	1
0	28933	54	1
0	28934	54	1
0	28935	54	1
0	28979	54.05	1
0	28980	54.05	1
0	28999	54.1	1
0	29000	54.1	1
0	29001	54.1	1
0	29002	54.1	1
0	29026	54.15	1
0	29027	54.15	1
0	29067	54.2	1
0	29068	54.2	1
0	29069	54.2	1
0	29070	54.2	1
0	29091	54.25	1
0	29092	54.25	1
0	29109	54.3	1
0	29110	54.3	1
0	29111	54.3	1
0	29112	54.3	1
0	29133	54.35	1
0	29134	54.35	1
0	29151	54.4	1
0	29152	54.4	1
0	29153	54.4	1
0	29154	54.4	1
0	29175	54.45	1
0	29176	54.45	1
0	29193	54.5	1
0	29194	54.5	1
0	29195	54.5	1
0	29196	54.5	1
0	29217	54.55	1
0	29218	54.55	1
0	29263	54.6	1
0	29264	54.6	1
0	29265	54.6	1
0	29266	54.6	1
0	29287	54.65	1
0	29288	54.65	1
0	29305	54.7	1
0	29306	54.7	1
0	29307	54.7	1
0	29308	54.7	1
0	29352	54.75	1
0	29353	54.75	1
0	29370	54.8	1
0	29371	54.8	1
0	29372	54.8	1
0	29373	54.8	1
0	29394	54.85	1
0	29395	54.85	1
0	29412	54.9	1
0	29413	54.9	1
0	29414	54.9	1
0	29415	54.9	1
0	29436	54.95	1
0	29437	54.95	1
0	29455	55	1
0	29456	55	1
0	29457	55	1
0	29458	55	1
0	29479	55.05	1
0	29480	55.05	1
0	29499	55.1	1
0	29500	55.1	1
0	29501	55.1	1
0	29502	55.1	1
0	29531	55.15	1
0	29532	55.15	1
0	29549	55.2	1
0	29550	55.2	1
0	29551	55.2	1
0	29552	55.2	1
0	29573	55.25	1
0	29574	55.25	1
0	29591	55.3	1
0	29592	55.3	1
0	29593	55.3	1
0	29594	55.3	1
0	29615	55.35	1
0	29616	55.35	1
0	29633	55.4	1
0	29634	55.4	1
0	29635	55.4	1
0	29636	55.4	1
0	29657	55.45	1
0	29658	55.45	1
0	29675	55.5	1
0	29676	55.5	1
0	29677	55.5	1
0	29678	55.5	1
0	29699	55.55	1
0	29700	55.55	1
0	29717	55.6	1
0	29718	55.6	1
0	29719	55.6	1
0	29720	55.6	1
0	29741	55.65	1
0	29742	55.65	1
0	29759	55.7	1
0	29760	55.7	1
0	29761	55.7	1
0	29762	55.7	1
0	29783	55.75	1
0	29784	55.75	1
0	29801	55.8	1
0	29802	55.8	1
0	29803	55.8	1
0	29804	55.8	1
0	29825	55.85	1
0	29826	55.85	1
0	29843	55.9	1
0	29844	55.9	1
0	29845	55.9	1
0	29846	55.9	1
0	29867	55.95	1
0	29868	55.95	1
0	29886	56	1
0	29887	56	1
0	29888	56	1
0	29889	56	1
0	29910	56.05	1
0	29911	56.05	1
0	29930	56.1	1
0	29931	56.1	1
0	29932	56.1	1
0	29933	56.1	1
0	29957	56.15	1
0	29958	56.15	1
0	29975	56.2	1
0	29976	56.2	1
0	29977	56.2	1
0	29978	56.2	1
0	29999	56.25	1
0	30000	56.25	1
0	30017	56.3	1
0	30018	56.3	1
0	30019	56.3	1
0	30020	56.3	1
0	30064	56.35	1
0	30065	56.35	1
0	30082	56.4	1
0	30083	56.4	1
0	30084	56.4	1
0	30085	56.4	1
0	30106	56.45	1
0	30107	56.45	1
0	30183	56.5	1
0	30184	56.5	1
0	30185	56.5	1
0	30186	56.5	1
0	30234	56.55	1
0	30235	56.55	1
0	30252	56.6	1
0	30253	56.6	1
0	30254	56.6	1
0	30255	56.6	1
0	30276	56.65	1
0	30277	56.65	1
0	30294	56.7	1
0	30295	56.7	1
0	30296	56.7	1
0	30297	56.7	1
0	30318	56.75	1
0	30319	56.75	1
0	30336	56.8	1
0	30337	56.8	1
0	30338	56.8	1
0	30339	56.8	1
0	30360	56.85	1
0	30361	56.85	1
0	30401	56.9	1
0	30402	56.9	1
0	30403	56.9	1
0	30404	56.9	1
0	30425	56.95	1
0	30426	56.95	1
0	30444	57	1
0	30445	57	1
0	30446	57	1
0	30447	57	1
0	30491	57.05	1
0	30492	57.05	1
0	30511	57.1	1
0	30512	57.1	1
0	30513	57.1	1
0	30514	57.1	1
0	30538	57.15	1
0	30539	57.15	1
0	30556	57.2	1
0	30557	57.2	1
0	30558	57.2	1
0	30559	57.2	1
0	30580	57.25	1
0	30581	57.25	1
0	30598	57.3	1
0	30599	57.3	1
0	30600	57.3	1
0	30601	57.3	1
0	30622	57.35	1
0	30623	57.35	1
0	30640	57.4	1
0	30641	57.4	1
0	30642	57.4	1
0	30643	57.4	1
0	30687	57.45	1
0	30688	57.45	1
0	30705	57.5	1
0	30706	57.5	1
0	30707	57.5	1
0	30708	57.5	1
0	30729	57.55	1
0	30730	57.55	1
0	30791	57.6	1
0	30792	57.6	1
0	30793	57.6	1
0	30794	57.6	1
0	30815	57.65	1
0	30816	57.65	1
0	30833	57.7	1
0	30834	57.7	1
0	30835	57.7	1
0	30836	57.7	1
0	30857	57.75	1
0	30858	57.75	1
0	30875	57.8	1
0	30876	57.8	1
0	30877	57.8	1
0	30878	57.8	1
0	30899	57.85	1
0	30900	57.85	1
0	30917	57.9	1
0	30918	57.9	1
0	30919	57.9	1
0	30920	57.9	1
0	30941	57.95	1
0	30942	57.95	1
0	30983	58	1
0	30984	58	1
0	30985	58	1
0	30986	58	1
0	31007	58.05	1
0	31008	58.05	1
0	31027	58.1	1
0	31028	58.1	1
0	31029	58.1	1
0	31030	58.1	1
0	31098	58.15	1
0	31099	58.15	1
0	31116	58.2	1
0	31117	58.2	1
0	31118	58.2	1
0	31119	58.2	1
0	31140	58.25	1
0	31141	58.25	1
0	31158	58.3	1
0	31159	58.3	1
0	31160	58.3	1
0	31161	58.3	1
0	31182	58.35	1
0	31183	58.35	1
0	31200	58.4	1
0	31201	58.4	1
0	31202	58.4	1
0	31203	58.4	1
0	31224	58.45	1
0	31225	58.45	1
0	31242	58.5	1
0	31243	58.5	1
0	31244	58.5	1
0	31245	58.5	1
0	31289	58.55	1
0	31290	58.55	1
0	31307	58.6	1
0	31308	58.6	1
0	31309	58.6	1
0	31310	58.6	1
0	31331	58.65	1
0	31332	58.65	1
0	31372	58.7	1
0	31373	58.7	1
0	31374	58.7	1
0	31375	58.7	1
0	31396	58.75	1
0	31397	58.75	1
0	31414	58.8	1
0	31415	58.8	1
0	31416	58.8	1
0	31417	58.8	1
0	31438	58.85	1
0	31439	58.85	1
0	31456	58.9	1
0	31457	58.9	1
0	31458	58.9	1
0	31459	58.9	1
0	31480	58.95	1
0	31481	58.95	1
0	31499	59	1
0	31500	59	1
0	31501	59	1
0	31502	59	1
0	31523	59.05	1
0	31524	59.05	1
0	31566	59.1	1
0	31567	59.1	1
0	31568	59.1	1
0	31569	59.1	1
0	31593	59.15	1
0	31594	59.15	1
0	31611	59.2	1
0	31612	59.2	1
0	31613	59.2	1
0	31614	59.2	1
0	31679	59.25	1
0	31680	59.25	1
0	31697	59.3	1
0	31698	59.3	1
0	31699	59.3	1
0	31700	59.3	1
0	31721	59.35	1
0	31722	59.35	1
0	31739	59.4	1
0	31740	59.4	1
0	31741	59.4	1
0	31742	59.4	1
0	31763	59.45	1
0	31764	59.45	1
0	31781	59.5	1
0	31782	59.5	1
0	31783	59.5	1
0	31784	59.5	1
0	31805	59.55	1
0	31806	59.55	1
0	31823	59.6	1
0	31824	59.6	1
0	31825	59.6	1
0	31826	59.6	1
0	31870	59.65	1
0	31871	59.65	1
0	31888	59.7	1
0	31889	59.7	1
0	31890	59.7	1
0	31891	59.7	1
0	31912	59.75	1
0	31913	59.75	1
0	31953	59.8	1
0	31954	59.8	1
0	31955	59.8	1
0	31956	59.8	1
0	31977	59.85	1
0	31978	59.85	1
0	31995	59.9	1
0	31996	59.9	1
0	31997	59.9	1
0	31998	59.9	1
0	32019	59.95	1
0	32020	59.95	1
0	32038	60	1
0	32039	60	1
0	32040	60	1
0	32041	60	1
0	32062	60.05	1
0	32063	60.05	1
0	32082	60.1	1
0	32083	60.1	1
0	32084	60.1	1
0	32085	60.1	1
0	32109	60.15	1
0	32110	60.15	1
0	32150	60.2	1
0	32151	60.2	1
0	32152	60.2	1
0	32153	60.2	1
0	32174	60.25	1
0	32175	60.25	1
0	32192	60.3	1
0	32193	60.3	1
0	32194	60.3	1
0	32195	60.3	1
0	32260	60.35	1
0	32261	60.35	1
0	32278	60.4	1
0	32279	60.4	1
0	32280	60.4	1
0	32281	60.4	1
0	32302	60.45	1
0	32303	60.45	1
0	32320	60.5	1
0	32321	60.5	1
0	32322	60.5	1
0	32323	60.5	1
0	32344	60.55	1
0	32345	60.55	1
0	32362	60.6	1
0	32363	60.6	1
0	32364	60.6	1
0	32365	60.6	1
0	32386	60.65	1
0	32387	60.65	1
0	32404	60.7	1
0	32405	60.7	1
0	32406	60.7	1
0	32407	60.7	1
0	32451	60.75	1
0	32452	60.75	1
0	32469	60.8	1
0	32470	60.8	1
0	32471	60.8	1
0	32472	60.8	1
0	32493	60.85	1
0	32494	60.85	1
0	32534	60.9	1
0	32535	60.9	1
0	32536	60.9	1
0	32537	60.9	1
0	32558	60.95	1
0	32559	60.95	1
0	32577	61	1
0	32578	61	1
0	32579	61	1
0	32580	61	1
0	32601	61.05	1
0	32602	61.05	1
0	32621	61.1	1
0	32622	61.1	1
0	32623	61.1	1
0	32624	61.1	1
0	32648	61.15	1
0	32649	61.15	1
0	32666	61.2	1
0	32667	61.2	1
0	32668	61.2	1
0	32669	61.2	1
0	32690	61.25	1
0	32691	61.25	1
0	32731	61.3	1
0	32732	61.3	1
0	32733	61.3	1
0	32734	61.3	1
0	32755	61.35	1
0	32756	61.35	1
0	32773	61.4	1
0	32774	61.4	1
0	32775	61.4	1
0	32776	61.4	1
0	32841	61.45	1
0	32842	61.45	1
0	32859	61.5	1
0	32860	61.5	1
0	32861	61.5	1
0	32862	61.5	1
0	32883	61.55	1
0	32884	61.55	1
0	32901	61.6	1
0	32902	61.6	1
0	32903	61.6	1
0	32904	61.6	1
0	32925	61.65	1
0	32926	61.65	1
0	32943	61.7	1
0	32944	61.7	1
0	32945	61.7	1
0	32946	61.7	1
0	32967	61.75	1
0	32968	61.75	1
0	32985	61.8	1
0	32986	61.8	1
0	32987	61.8	1
0	32988	61.8	1
0	33032	61.85	1
0	33033	61.85	1
0	33050	61.9	1
0	33051	61.9	1
0	33052	61.9	1
0	33053	61.9	1
0	33074	61.95	1
0	33075	61.95	1
0	33116	62	1
0	33117	62	1
0	33118	62	1
0	33119	62	1
0	33140	62.05	1
0	33141	62.05	1
0	33160	62.1	1
0	33161	62.1	1
0	33162	62.1	1
0	33163	62.1	1
0	33187	62.15	1
0	33188	62.15	1
0	33205	62.2	1
0	33206	62.2	1
0	33207	62.2	1
0	33208	62.2	1
0	33229	62.25	1
0	33230	62.25	1
0	33247	62.3	1
0	33248	62.3	1
0	33249	62.3	1
0	33250	62.3	1
0	33271	62.35	1
0	33272	62.35	1
0	33312	62.4	1
0	33313	62.4	1
0	33314	62.4	1
0	33315	62.4	1
0	33336	62.45	1
0	33337	62.45	1
0	33354	62.5	1
0	33355	62.5	1
0	33356	62.5	1
0	33357	62.5	1
0	33417	62.55	1
0	33418	62.55	1
0	33435	62.6	1
0	33436	62.6	1
0	33437	62.6	1
0	33438	62.6	1
0	33459	62.65	1
0	33460	62.65	1
0	33477	62.7	1
0	33478	62.7	1
0	33479	62.7	1
0	33480	62.7	1
0	33501	62.75	1
0	33502	62.75	1
0	33519	62.8	1
0	33520	62.8	1
0	33521	62.8	1
0	33522	62.8	1
0	33543	62.85	1
0	33544	62.85	1
0	33561	62.9	1
0	33562	62.9	1
0	33563	62.9	1
0	33564	62.9	1
0	33608	62.95	1
0	33609	62.95	1
0	33627	63	1
0	33628	63	1
0	33629	63	1
0	33630	63	1
0	33651	63.05	1
0	33652	63.05	1
0	33699	63.1	1
0	33700	63.1	1
0	33701	63.1	1
0	33702	63.1	1
0	33726	63.15	1
0	33727	63.15	1
0	33744	63.2	1
0	33745	63.2	1
0	33746	63.2	1
0	33747	63.2	1
0	33768	63.25	1
0	33769	63.25	1
0	33786	63.3	1
0	33787	63.3	1
0	33788	63.3	1
0	33789	63.3	1
0	33810	63.35	1
0	33811	63.35	1
0	33828	63.4	1
0	33829	63.4	1
0	33830	63.4	1
0	33831	63.4	1
0	33852	63.45	1
0	33853	63.45	1
0	33893	63.5	1
0	33894	63.5	1
0	33895	63.5	1
0	33896	63.5	1
0	33917	63.55	1
0	33918	63.55	1
0	33935	63.6	1
0	33936	63.6	1
0	33937	63.6	1
0	33938	63.6	1
0	34016	63.65	1
0	34017	63.65	1
0	34042	63.7	1
0	34043	63.7	1
0	34044	63.7	1
0	34045	63.7	1
0	34066	63.75	1
0	34067	63.75	1
0	34084	63.8	1
0	34085	63.8	1
0	34086	63.8	1
0	34087	63.8	1
0	34108	63.85	1
0	34109	63.85	1
0	34126	63.9	1
0	34127	63.9	1
0	34128	63.9	1
0	34129	63.9	1
0	34150	63.95	1
0	34151	63.95	1
0	34169	64	1
0	34170	64	1
0	34171	64	1
0	34172	64	1
0	34198	64.05	1
0	34199	64.05	1
0	34218	64.1	1
0	34219	64.1	1
0	34220	64.1	1
0	34221	64.1	1
0	34245	64.15	1
0	34246	64.15	1
0	34263	64.2	1
0	34264	64.2	1
0	34265	64.2	1
0	34266	64.2	1
0	34287	64.25	1
0	34288	64.25	1
0	34305	64.3	1
0	34306	64.3	1
0	34307	64.3	1
0	34308	64.3	1
0	34329	64.35	1
0	34330	64.35	1
0	34347	64.4	1
0	34348	64.4	1
0	34349	64.4	1
0	34350	64.4	1
0	34371	64.45	1
0	34372	64.45	1
0	34389	64.5	1
0	34390	64.5	1
0	34391	64.5	1
0	34392	64.5	1
0	34413	64.55	1
0	34414	64.55	1
0	34431	64.6	1
0	34432	64.6	1
0	34433	64.6	1
0	34434	64.6	1
0	34455	64.65	1
0	34456	64.65	1
0	34473	64.7	1
0	34474	64.7	1
0	34475	64.7	1
0	34476	64.7	1
0	34497	64.75	1
0	34498	64.75	1
0	34515	64.8	1
0	34516	64.8	1
0	34517	64.8	1
0	34518	64.8	1
0	34539	64.85	1
0	34540	64.85	1
0	34557	64.9	1
0	34558	64.9	1
0	34559	64.9	1
0	34560	64.9	1
0	34581	64.95	1
0	34582	64.95	1
0	34600	65	1
0	34601	65	1
0	34602	65	1
0	34603	65	1
0	34624	65.05	1
0	34625	65.05	1
0	34644	65.1	1
0	34645	65.1	1
0	34646	65.1	1
0	34647	65.1	1
0	34671	65.15	1
0	34672	65.15	1
0	34689	65.2	1
0	34690	65.2	1
0	34691	65.2	1
0	34692	65.2	1
0	34770	65.25	1
0	34771	65.25	1
0	34796	65.3	1
0	34797	65.3	1
0	34798	65.3	1
0	34799	65.3	1
0	34820	65.35	1
0	34821	65.35	1
0	34861	65.4	1
0	34862	65.4	1
0	34863	65.4	1
0	34864	65.4	1
0	34885	65.45	1
0	34886	65.45	1
0	34903	65.5	1
0	34904	65.5	1
0	34905	65.5	1
0	34906	65.5	1
0	34927	65.55	1
0	34928	65.55	1
0	34945	65.6	1
0	34946	65.6	1
0	34947	65.6	1
0	34948	65.6	1
0	34969	65.65	1
0	34970	65.65	1
0	34987	65.7	1
0	34988	65.7	1
0	34989	65.7	1
0	34990	65.7	1
0	35011	65.75	1
0	35012	65.75	1
0	35052	65.8	1
0	35053	65.8	1
0	35054	65.8	1
0	35055	65.8	1
0	35076	65.85	1
0	35077	65.85	1
0	35094	65.9	1
0	35095	65.9	1
0	35096	65.9	1
0	35097	65.9	1
0	35141	65.95	1
0	35142	65.95	1
0	35160	66	1
0	35161	66	1
0	35162	66	1
0	35163	66	1
0	35184	66.05	1
0	35185	66.05	1
0	35204	66.1	1
0	35205	66.1	1
0	35206	66.1	1
0	35207	66.1	1
0	35231	66.15	1
0	35232	66.15	1
0	35249	66.2	1
0	35250	66.2	1
0	35251	66.2	1
0	35252	66.2	1
0	35273	66.25	1
0	35274	66.25	1
0	35291	66.3	1
0	35292	66.3	1
0	35293	66.3	1
0	35294	66.3	1
0	35359	66.35	1
0	35360	66.35	1
0	35377	66.4	1
0	35378	66.4	1
0	35379	66.4	1
0	35380	66.4	1
0	35401	66.45	1
0	35402	66.45	1
0	35442	66.5	1
0	35443	66.5	1
0	35444	66.5	1
0	35445	66.5	1
0	35466	66.55	1
0	35467	66.55	1
0	35484	66.6	1
0	35485	66.6	1
0	35486	66.6	1
0	35487	66.6	1
0	35508	66.65	1
0	35509	66.65	1
0	35526	66.7	1
0	35527	66.7	1
0	35528	66.7	1
0	35529	66.7	1
0	35550	66.75	1
0	35551	66.75	1
0	35568	66.8	1
0	35569	66.8	1
0	35570	66.8	1
0	35571	66.8	1
0	35592	66.85	1
0	35593	66.85	1
0	35633	66.9	1
0	35634	66.9	1
0	35635	66.9	1
0	35636	66.9	1
0	35657	66.95	1
0	35658	66.95	1
0	35676	67	1
0	35677	67	1
0	35678	67	1
0	35679	67	1
0	35723	67.05	1
0	35724	67.05	1
0	35743	67.1	1
0	35744	67.1	1
0	35745	67.1	1
0	35746	67.1	1
0	35770	67.15	1
0	35771	67.15	1
0	35788	67.2	1
0	35789	67.2	1
0	35790	67.2	1
0	35791	67.2	1
0	35812	67.25	1
0	35813	67.25	1
0	35830	67.3	1
0	35831	67.3	1
0	35832	67.3	1
0	35833	67.3	1
0	35854	67.35	1
0	35855	67.35	1
0	35872	67.4	1
0	35873	67.4	1
0	35874	67.4	1
0	35875	67.4	1
0	35940	67.45	1
0	35941	67.45	1
0	35958	67.5	1
0	35959	67.5	1
0	35960	67.5	1
0	35961	67.5	1
0	35982	67.55	1
0	35983	67.55	1
0	36023	67.6	1
0	36024	67.6	1
0	36025	67.6	1
0	36026	67.6	1
0	36047	67.65	1
0	36048	67.65	1
0	36065	67.7	1
0	36066	67.7	1
0	36067	67.7	1
0	36068	67.7	1
0	36089	67.75	1
0	36090	67.75	1
0	36107	67.8	1
0	36108	67.8	1
0	36109	67.8	1
0	36110	67.8	1
0	36131	67.85	1
0	36132	67.85	1
0	36149	67.9	1
0	36150	67.9	1
0	36151	67.9	1
0	36152	67.9	1
0	36173	67.95	1
0	36174	67.95	1
0	36215	68	1
0	36216	68	1
0	36217	68	1
0	36218	68	1
0	36239	68.05	1
0	36240	68.05	1
0	36259	68.1	1
0	36260	68.1	1
0	36261	68.1	1
0	36262	68.1	1
0	36309	68.15	1
0	36310	68.15	1
0	36327	68.2	1
0	36328	68.2	1
0	36329	68.2	1
0	36330	68.2	1
0	36351	68.25	1
0	36352	68.25	1
0	36369	68.3	1
0	36370	68.3	1
0	36371	68.3	1
0	36372	68.3	1
0	36393	68.35	1
0	36394	68.35	1
0	36411	68.4	1
0	36412	68.4	1
0	36413	68.4	1
0	36414	68.4	1
0	36435	68.45	1
0	36436	68.45	1
0	36453	68.5	1
0	36454	68.5	1
0	36455	68.5	1
0	36456	68.5	1
0	36505	68.55	1
0	36506	68.55	1
0	36523	68.6	1
0	36524	68.6	1
0	36525	68.6	1
0	36526	68.6	1
0	36547	68.65	1
0	36548	68.65	1
0	36588	68.7	1
0	36589	68.7	1
0	36590	68.7	1
0	36591	68.7	1
0	36612	68.75	1
0	36613	68.75	1
0	36630	68.8	1
0	36631	68.8	1
0	36632	68.8	1
0	36633	68.8	1
0	36654	68.85	1
0	36655	68.85	1
0	36672	68.9	1
0	36673	68.9	1
0	36674	68.9	1
0	36675	68.9	1
0	36696	68.95	1
0	36697	68.95	1
0	36715	69	1
0	36716	69	1
0	36717	69	1
0	36718	69	1
0	36739	69.05	1
0	36740	69.05	1
0	36803	69.1	1
0	36804	69.1	1
0	36805	69.1	1
0	36806	69.1	1
0	36830	69.15	1
0	36831	69.15	1
0	36848	69.2	1
0	36849	69.2	1
0	36850	69.2	1
0	36851	69.2	1
0	36895	69.25	1
0	36896	69.25	1
0	36913	69.3	1
0	36914	69.3	1
0	36915	69.3	1
0	36916	69.3	1
0	36937	69.35	1
0	36938	69.35	1
0	36955	69.4	1
0	36956	69.4	1
0	36957	69.4	1
0	36958	69.4	1
0	36979	69.45	1
0	36980	69.45	1
0	36997	69.5	1
0	36998	69.5	1
0	36999	69.5	1
0	37000	69.5	1
0	37021	69.55	1
0	37022	69.55	1
0	37039	69.6	1
0	37040	69.6	1
0	37041	69.6	1
0	37042	69.6	1
0	37107	69.65	1
0	37108	69.65	1
0	37125	69.7	1
0	37126	69.7	1
0	37127	69.7	1
0	37128	69.7	1
0	37149	69.75	1
0	37150	69.75	1
0	37190	69.8	1
0	37191	69.8	1
0	37192	69.8	1
0	37193	69.8	1
0	37214	69.85	1
0	37215	69.85	1
0	37232	69.9	1
0	37233	69.9	1
0	37234	69.9	1
0	37235	69.9	1
0	37256	69.95	1
0	37257	69.95	1
0	37275	70	1
0	37276	70	1
0	37277	70	1
0	37278	70	1
0	37299	70.05	1
0	37300	70.05	1
0	37319	70.1	1
0	37320	70.1	1
0	37321	70.1	1
0	37322	70.1	1
0	37346	70.15	1
0	37347	70.15	1
0	37408	70.2	1
0	37409	70.2	1
0	37410	70.2	1
0	37411	70.2	1
0	37432	70.25	1
0	37433	70.25	1
0	37450	70.3	1
0	37451	70.3	1
0	37452	70.3	1
0	37453	70.3	1
0	37497	70.35	1
0	37498	70.35	1
0	37515	70.4	1
0	37516	70.4	1
0	37517	70.4	1
0	37518	70.4	1
0	37539	70.45	1
0	37540	70.45	1
0	37557	70.5	1
0	37558	70.5	1
0	37559	70.5	1
0	37560	70.5	1
0	37581	70.55	1
0	37582	70.55	1
0	37599	70.6	1
0	37600	70.6	1
0	37601	70.6	1
0	37602	70.6	1
0	37623	70.65	1
0	37624	70.65	1
0	37641	70.7	1
0	37642	70.7	1
0	37643	70.7	1
0	37644	70.7	1
0	37688	70.75	1
0	37689	70.75	1
0	37706	70.8	1
0	37707	70.8	1
0	37708	70.8	1
0	37709	70.8	1
0	37730	70.85	1
0	37731	70.85	1
0	37771	70.9	1
0	37772	70.9	1
0	37773	70.9	1
0	37774	70.9	1
0	37795	70.95	1
0	37796	70.95	1
0	37814	71	1
0	37815	71	1
0	37816	71	1
0	37817	71	1
0	37838	71.05	1
0	37839	71.05	1
0	37858	71.1	1
0	37859	71.1	1
0	37860	71.1	1
0	37861	71.1	1
0	37885	71.15	1
0	37886	71.15	1
0	37903	71.2	1
0	37904	71.2	1
0	37905	71.2	1
0	37906	71.2	1
0	37927	71.25	1
0	37928	71.25	1
0	37973	71.3	1
0	37974	71.3	1
0	37975	71.3	1
0	37976	71.3	1
0	37997	71.35	1
0	37998	71.35	1
0	38015	71.4	1
0	38016	71.4	1
0	38017	71.4	1
0	38018	71.4	1
0	38062	71.45	1
0	38063	71.45	1
0	38080	71.5	1
0	38081	71.5	1
0	38082	71.5	1
0	38083	71.5	1
0	38104	71.55	1
0	38105	71.55	1
0	38122	71.6	1
0	38123	71.6	1
0	38124	71.6	1
0	38125	71.6	1
0	38146	71.65	1
0	38147	71.65	1
0	38164	71.7	1
0	38165	71.7	1
0	38166	71.7	1
0	38167	71.7	1
0	38188	71.75	1
0	38189	71.75	1
0	38206	71.8	1
0	38207	71.8	1
0	38208	71.8	1
0	38209	71.8	1
0	38274	71.85	1
0	38275	71.85	1
0	38292	71.9	1
0	38293	71.9	1
0	38294	71.9	1
0	38295	71.9	1
0	38316	71.95	1
0	38317	71.95	1
0	38358	72	1
0	38359	72	1
0	38360	72	1
0	38361	72	1
0	38382	72.05	1
0	38383	72.05	1
0	38402	72.1	1
0	38403	72.1	1
0	38404	72.1	1
0	38405	72.1	1
0	38429	72.15	1
0	38430	72.15	1
0	38447	72.2	1
0	38448	72.2	1
0	38449	72.2	1
0	38450	72.2	1
0	38471	72.25	1
0	38472	72.25	1
0	38489	72.3	1
0	38490	72.3	1
0	38491	72.3	1
0	38492	72.3	1
0	38513	72.35	1
0	38514	72.35	1
0	38559	72.4	1
0	38560	72.4	1
0	38561	72.4	1
0	38562	72.4	1
0	38583	72.45	1
0	38584	72.45	1
0	38601	72.5	1
0	38602	72.5	1
0	38603	72.5	1
0	38604	72.5	1
0	38648	72.55	1
0	38649	72.55	1
0	38666	72.6	1
0	38667	72.6	1
0	38668	72.6	1
0	38669	72.6	1
0	38690	72.65	1
0	38691	72.65	1
0	38708	72.7	1
0	38709	72.7	1
0	38710	72.7	1
0	38711	72.7	1
0	38732	72.75	1
0	38733	72.75	1
0	38750	72.8	1
0	38751	72.8	1
0	38752	72.8	1
0	38753	72.8	1
0	38774	72.85	1
0	38775	72.85	1
0	38792	72.9	1
0	38793	72.9	1
0	38794	72.9	1
0	38795	72.9	1
0	38860	72.95	1
0	38861	72.95	1
0	38879	73	1
0	38880	73	1
0	38881	73	1
0	38882	73	1
0	38903	73.05	1
0	38904	73.05	1
0	38928	73.1	1
0	38929	73.1	1
0	38930	73.1	1
0	38931	73.1	1
0	38955	73.15	1
0	38956	73.15	1
0	38973	73.2	1
0	38974	73.2	1
0	38975	73.2	1
0	38976	73.2	1
0	38997	73.25	1
0	38998	73.25	1
0	39015	73.3	1
0	39016	73.3	1
0	39017	73.3	1
0	39018	73.3	1
0	39039	73.35	1
0	39040	73.35	1
0	39057	73.4	1
0	39058	73.4	1
0	39059	73.4	1
0	39060	73.4	1
0	39081	73.45	1
0	39082	73.45	1
0	39099	73.5	1
0	39100	73.5	1
0	39101	73.5	1
0	39102	73.5	1
0	39123	73.55	1
0	39124	73.55	1
0	39141	73.6	1
0	39142	73.6	1
0	39143	73.6	1
0	39144	73.6	1
0	39165	73.65	1
0	39166	73.65	1
0	39183	73.7	1
0	39184	73.7	1
0	39185	73.7	1
0	39186	73.7	1
0	39207	73.75	1
0	39208	73.75	1
0	39225	73.8	1
0	39226	73.8	1
0	39227	73.8	1
0	39228	73.8	1
0	39249	73.85	1
0	39250	73.85	1
0	39267	73.9	1
0	39268	73.9	1
0	39269	73.9	1
0	39270	73.9	1
0	39291	73.95	1
0	39292	73.95	1
0	39310	74	1
0	39311	74	1
0	39312	74	1
0	39313	74	1
0	39334	74.05	1
0	39335	74.05	1
0	39354	74.1	1
0	39355	74.1	1
0	39356	74.1	1
0	39357	74.1	1
0	39381	74.15	1
0	39382	74.15	1
0	39399	74.2	1
0	39400	74.2	1
0	39401	74.2	1
0	39402	74.2	1
0	39423	74.25	1
0	39424	74.25	1
0	39441	74.3	1
0	39442	74.3	1
0	39443	74.3	1
0	39444	74.3	1
0	39465	74.35	1
0	39466	74.35	1
0	39483	74.4	1
0	39484	74.4	1
0	39485	74.4	1
0	39486	74.4	1
0	39507	74.45	1
0	39508	74.45	1
0	39525	74.5	1
0	39526	74.5	1
0	39527	74.5	1
0	39528	74.5	1
0	39606	74.55	1
0	39607	74.55	1
0	39632	74.6	1
0	39633	74.6	1
0	39634	74.6	1
0	39635	74.6	1
0	39656	74.65	1
0	39657	74.65	1
0	39697	74.7	1
0	39698	74.7	1
0	39699	74.7	1
0	39700	74.7	1
0	39721	74.75	1
0	39722	74.75	1
0	39739	74.8	1
0	39740	74.8	1
0	39741	74.8	1
0	39742	74.8	1
0	39763	74.85	1
0	39764	74.85	1
0	39781	74.9	1
0	39782	74.9	1
0	39783	74.9	1
0	39784	74.9	1
0	39805	74.95	1
0	39806	74.95	1
0	39824	75	1
0	39825	75	1
0	39826	75	1
0	39827	75	1
0	39848	75.05	1
0	39849	75.05	1
0	39891	75.1	1
0	39892	75.1	1
0	39893	75.1	1
0	39894	75.1	1
0	39918	75.15	1
0	39919	75.15	1
0	39936	75.2	1
0	39937	75.2	1
0	39938	75.2	1
0	39939	75.2	1
0	39983	75.25	1
0	39984	75.25	1
0	40001	75.3	1
0	40002	75.3	1
0	40003	75.3	1
0	40004	75.3	1
0	40025	75.35	1
0	40026	75.35	1
0	40043	75.4	1
0	40044	75.4	1
0	40045	75.4	1
0	40046	75.4	1
0	40067	75.45	1
0	40068	75.45	1
0	40085	75.5	1
0	40086	75.5	1
0	40087	75.5	1
0	40088	75.5	1
0	40109	75.55	1
0	40110	75.55	1
0	40127	75.6	1
0	40128	75.6	1
0	40129	75.6	1
0	40130	75.6	1
0	40195	75.65	1
0	40196	75.65	1
0	40213	75.7	1
0	40214	75.7	1
0	40215	75.7	1
0	40216	75.7	1
0	40237	75.75	1
0	40238	75.75	1
0	40278	75.8	1
0	40279	75.8	1
0	40280	75.8	1
0	40281	75.8	1
0	40302	75.85	1
0	40303	75.85	1
0	40320	75.9	1
0	40321	75.9	1
0	40322	75.9	1
0	40323	75.9	1
0	40344	75.95	1
0	40345	75.95	1
0	40363	76	1
0	40364	76	1
0	40365	76	1
0	40366	76	1
0	40387	76.05	1
0	40388	76.05	1
0	40407	76.1	1
0	40408	76.1	1
0	40409	76.1	1
0	40410	76.1	1
0	40434	76.15	1
0	40435	76.15	1
0	40480	76.2	1
0	40481	76.2	1
0	40482	76.2	1
0	40483	76.2	1
0	40504	76.25	1
0	40505	76.25	1
0	40522	76.3	1
0	40523	76.3	1
0	40524	76.3	1
0	40525	76.3	1
0	40569	76.35	1
0	40570	76.35	1
0	40587	76.4	1
0	40588	76.4	1
0	40589	76.4	1
0	40590	76.4	1
0	40611	76.45	1
0	40612	76.45	1
0	40629	76.5	1
0	40630	76.5	1
0	40631	76.5	1
0	40632	76.5	1
0	40653	76.55	1
0	40654	76.55	1
0	40671	76.6	1
0	40672	76.6	1
0	40673	76.6	1
0	40674	76.6	1
0	40695	76.65	1
0	40696	76.65	1
0	40713	76.7	1
0	40714	76.7	1
0	40715	76.7	1
0	40716	76.7	1
0	40781	76.75	1
0	40782	76.75	1
0	40799	76.8	1
0	40800	76.8	1
0	40801	76.8	1
0	40802	76.8	1
0	40823	76.85	1
0	40824	76.85	1
0	40864	76.9	1
0	40865	76.9	1
0	40866	76.9	1
0	40867	76.9	1
0	40888	76.95	1
0	40889	76.95	1
0	40907	77	1
0	40908	77	1
0	40909	77	1
0	40910	77	1
0	40931	77.05	1
0	40932	77.05	1
0	40951	77.1	1
0	40952	77.1	1
0	40953	77.1	1
0	40954	77.1	1
0	40978	77.15	1
0	40979	77.15	1
0	40996	77.2	1
0	40997	77.2	1
0	40998	77.2	1
0	40999	77.2	1
0	41020	77.25	1
0	41021	77.25	1
0	41082	77.3	1
0	41083	77.3	1
0	41084	77.3	1
0	41085	77.3	1
0	41106	77.35	1
0	41107	77.35	1
0	41124	77.4	1
0	41125	77.4	1
0	41126	77.4	1
0	41127	77.4	1
0	41171	77.45	1
0	41172	77.45	1
0	41189	77.5	1
0	41190	77.5	1
0	41191	77.5	1
0	41192	77.5	1
0	41213	77.55	1
0	41214	77.55	1
0	41231	77.6	1
0	41232	77.6	1
0	41233	77.6	1
0	41234	77.6	1
0	41255	77.65	1
0	41256	77.65	1
0	41273	77.7	1
0	41274	77.7	1
0	41275	77.7	1
0	41276	77.7	1
0	41297	77.75	1
0	41298	77.75	1
0	41315	77.8	1
0	41316	77.8	1
0	41317	77.8	1
0	41318	77.8	1
0	41362	77.85	1
0	41363	77.85	1
0	41380	77.9	1
0	41381	77.9	1
0	41382	77.9	1
0	41383	77.9	1
0	41404	77.95	1
0	41405	77.95	1
0	41446	78	1
0	41447	78	1
0	41448	78	1
0	41449	78	1
0	41470	78.05	1
0	41471	78.05	1
0	41490	78.1	1
0	41491	78.1	1
0	41492	78.1	1
0	41493	78.1	1
0	41517	78.15	1
0	41518	78.15	1
0	41535	78.2	1
0	41536	78.2	1
0	41537	78.2	1
0	41538	78.2	1
0	41559	78.25	1
0	41560	78.25	1
0	41577	78.3	1
0	41578	78.3	1
0	41579	78.3	1
0	41580	78.3	1
0	41601	78.35	1
0	41602	78.35	1
0	41663	78.4	1
0	41664	78.4	1
0	41665	78.4	1
0	41666	78.4	1
0	41687	78.45	1
0	41688	78.45	1
0	41705	78.5	1
0	41706	78.5	1
0	41707	78.5	1
0	41708	78.5	1
0	41752	78.55	1
0	41753	78.55	1
0	41770	78.6	1
0	41771	78.6	1
0	41772	78.6	1
0	41773	78.6	1
0	41794	78.65	1
0	41795	78.65	1
0	41812	78.7	1
0	41813	78.7	1
0	41814	78.7	1
0	41815	78.7	1
0	41836	78.75	1
0	41837	78.75	1
0	41854	78.8	1
0	41855	78.8	1
0	41856	78.8	1
0	41857	78.8	1
0	41878	78.85	1
0	41879	78.85	1
0	41896	78.9	1
0	41897	78.9	1
0	41898	78.9	1
0	41899	78.9	1
0	41943	78.95	1
0	41944	78.95	1
0	41962	79	1
0	41963	79	1
0	41964	79	1
0	41965	79	1
0	41986	79.05	1
0	41987	79.05	1
0	42011	79.1	1
0	42012	79.1	1
0	42013	79.1	1
0	42014	79.1	1
0	42038	79.15	1
0	42039	79.15	1
0	42056	79.2	1
0	42057	79.2	1
0	42058	79.2	1
0	42059	79.2	1
0	42080	79.25	1
0	42081	79.25	1
0	42098	79.3	1
0	42099	79.3	1
0	42100	79.3	1
0	42101	79.3	1
0	42122	79.35	1
0	42123	79.35	1
0	42140	79.4	1
0	42141	79.4	1
0	42142	79.4	1
0	42143	79.4	1
0	42164	79.45	1
0	42165	79.45	1
0	42182	79.5	1
0	42183	79.5	1
0	42184	79.5	1
0	42185	79.5	1
0	42206	79.55	1
0	42207	79.55	1
0	42224	79.6	1
0	42225	79.6	1
0	42226	79.6	1
0	42227	79.6	1
0	42248	79.65	1
0	42249	79.65	1
0	42266	79.7	1
0	42267	79.7	1
0	42268	79.7	1
0	42269	79.7	1
0	42290	79.75	1
0	42291	79.75	1
0	42308	79.8	1
0	42309	79.8	1
0	42310	79.8	1
0	42311	79.8	1
0	42332	79.85	1
0	42333	79.85	1
0	42350	79.9	1
0	42351	79.9	1
0	42352	79.9	1
0	42353	79.9	1
0	42374	79.95	1
0	42375	79.95	1
0	42393	80	1
0	42394	80	1
0	42395	80	1
0	42396	80	1
0	42417	80.05	1
0	42418	80.05	1
0	42437	80.1	1
0	42438	80.1	1
0	42439	80.1	1
0	42440	80.1	1
0	42464	80.15	1
0	42465	80.15	1
0	42482	80.2	1
0	42483	80.2	1
0	42484	80.2	1
0	42485	80.2	1
0	42506	80.25	1
0	42507	80.25	1
0	42524	80.3	1
0	42525	80.3	1
0	42526	80.3	1
0	42527	80.3	1
0	42548	80.35	1
0	42549	80.35	1
0	42566	80.4	1
0	42567	80.4	1
0	42568	80.4	1
0	42569	80.4	1
0	42590	80.45	1
0	42591	80.45	1
0	42608	80.5	1
0	42609	80.5	1
0	42610	80.5	1
0	42611	80.5	1
0	42689	80.55	1
0	42690	80.55	1
0	42715	80.6	1
0	42716	80.6	1
0	42717	80.6	1
0	42718	80.6	1
0	42739	80.65	1
0	42740	80.65	1
0	42780	80.7	1
0	42781	80.7	1
0	42782	80.7	1
0	42783	80.7	1
0	42804	80.75	1
0	42805	80.75	1
0	42822	80.8	1
0	42823	80.8	1
0	42824	80.8	1
0	42825	80.8	1
0	42846	80.85	1
0	42847	80.85	1
0	42864	80.9	1
0	42865	80.9	1
0	42866	80.9	1
0	42867	80.9	1
0	42888	80.95	1
0	42889	80.95	1
0	42907	81	1
0	42908	81	1
0	42909	81	1
0	42910	81	1
0	42931	81.05	1
0	42932	81.05	1
0	42974	81.1	1
0	42975	81.1	1
0	42976	81.1	1
0	42977	81.1	1
0	43001	81.15	1
0	43002	81.15	1
0	43019	81.2	1
0	43020	81.2	1
0	43021	81.2	1
0	43022	81.2	1
0	43066	81.25	1
0	43067	81.25	1
0	43084	81.3	1
0	43085	81.3	1
0	43086	81.3	1
0	43087	81.3	1
0	43108	81.35	1
0	43109	81.35	1
0	43126	81.4	1
0	43127	81.4	1
0	43128	81.4	1
0	43129	81.4	1
0	43150	81.45	1
0	43151	81.45	1
0	43168	81.5	1
0	43169	81.5	1
0	43170	81.5	1
0	43171	81.5	1
0	43192	81.55	1
0	43193	81.55	1
0	43210	81.6	1
0	43211	81.6	1
0	43212	81.6	1
0	43213	81.6	1
0	43278	81.65	1
0	43279	81.65	1
0	43296	81.7	1
0	43297	81.7	1
0	43298	81.7	1
0	43299	81.7	1
0	43320	81.75	1
0	43321	81.75	1
0	43361	81.8	1
0	43362	81.8	1
0	43363	81.8	1
0	43364	81.8	1
0	43385	81.85	1
0	43386	81.85	1
0	43403	81.9	1
0	43404	81.9	1
0	43405	81.9	1
0	43406	81.9	1
0	43427	81.95	1
0	43428	81.95	1
0	43446	82	1
0	43447	82	1
0	43448	82	1
0	43449	82	1
0	43470	82.05	1
0	43471	82.05	1
0	43490	82.1	1
0	43491	82.1	1
0	43492	82.1	1
0	43493	82.1	1
0	43517	82.15	1
0	43518	82.15	1
0	43579	82.2	1
0	43580	82.2	1
0	43581	82.2	1
0	43582	82.2	1
0	43603	82.25	1
0	43604	82.25	1
0	43621	82.3	1
0	43622	82.3	1
0	43623	82.3	1
0	43624	82.3	1
0	43668	82.35	1
0	43669	82.35	1
0	43686	82.4	1
0	43687	82.4	1
0	43688	82.4	1
0	43689	82.4	1
0	43710	82.45	1
0	43711	82.45	1
0	43728	82.5	1
0	43729	82.5	1
0	43730	82.5	1
0	43731	82.5	1
0	43752	82.55	1
0	43753	82.55	1
0	43770	82.6	1
0	43771	82.6	1
0	43772	82.6	1
0	43773	82.6	1
0	43794	82.65	1
0	43795	82.65	1
0	43812	82.7	1
0	43813	82.7	1
0	43814	82.7	1
0	43815	82.7	1
0	43859	82.75	1
0	43860	82.75	1
0	43877	82.8	1
0	43878	82.8	1
0	43879	82.8	1
0	43880	82.8	1
0	43901	82.85	1
0	43902	82.85	1
0	43936	82.9	1
0	43937	82.9	1
0	43938	82.9	1
0	43939	82.9	1
0	43960	82.95	1
0	43961	82.95	1
0	43979	83	1
0	43980	83	1
0	43981	83	1
0	43982	83	1
0	44003	83.05	1
0	44004	83.05	1
0	44023	83.1	1
0	44024	83.1	1
0	44025	83.1	1
0	44026	83.1	1
0	44050	83.15	1
0	44051	83.15	1
0	44068	83.2	1
0	44069	83.2	1
0	44070	83.2	1
0	44071	83.2	1
0	44092	83.25	1
0	44093	83.25	1
0	44154	83.3	1
0	44155	83.3	1
0	44156	83.3	1
0	44157	83.3	1
0	44178	83.35	1
0	44179	83.35	1
0	44196	83.4	1
0	44197	83.4	1
0	44198	83.4	1
0	44199	83.4	1
0	44243	83.45	1
0	44244	83.45	1
0	44261	83.5	1
0	44262	83.5	1
0	44263	83.5	1
0	44264	83.5	1
0	44285	83.55	1
0	44286	83.55	1
0	44303	83.6	1
0	44304	83.6	1
0	44305	83.6	1
0	44306	83.6	1
0	44327	83.65	1
0	44328	83.65	1
0	44345	83.7	1
0	44346	83.7	1
0	44347	83.7	1
0	44348	83.7	1
0	44369	83.75	1
0	44370	83.75	1
0	44387	83.8	1
0	44388	83.8	1
0	44389	83.8	1
0	44390	83.8	1
0	44434	83.85	1
0	44435	83.85	1
0	44452	83.9	1
0	44453	83.9	1
0	44454	83.9	1
0	44455	83.9	1
0	44476	83.95	1
0	44477	83.95	1
0	44518	84	1
0	44519	84	1
0	44520	84	1
0	44521	84	1
0	44542	84.05	1
0	44543	84.05	1
0	44562	84.1	1
0	44563	84.1	1
0	44564	84.1	1
0	44565	84.1	1
0	44589	84.15	1
0	44590	84.15	1
0	44607	84.2	1
0	44608	84.2	1
0	44609	84.2	1
0	44610	84.2	1
0	44631	84.25	1
0	44632	84.25	1
0	44649	84.3	1
0	44650	84.3	1
0	44651	84.3	1
0	44652	84.3	1
0	44673	84.35	1
0	44674	84.35	1
0	44735	84.4	1
0	44736	84.4	1
0	44737	84.4	1
0	44738	84.4	1
0	44759	84.45	1
0	44760	84.45	1
0	44777	84.5	1
0	44778	84.5	1
0	44779	84.5	1
0	44780	84.5	1
0	44824	84.55	1
0	44825	84.55	1
0	44842	84.6	1
0	44843	84.6	1
0	44844	84.6	1
0	44845	84.6	1
0	44866	84.65	1
0	44867	84.65	1
0	44884	84.7	1
0	44885	84.7	1
0	44886	84.7	1
0	44887	84.7	1
0	44908	84.75	1
0	44909	84.75	1
0	44926	84.8	1
0	44927	84.8	1
0	44928	84.8	1
0	44929	84.8	1
0	44950	84.85	1
0	44951	84.85	1
0	44968	84.9	1
0	44969	84.9	1
0	44970	84.9	1
0	44971	84.9	1
0	45015	84.95	1
0	45016	84.95	1
0	45034	85	1
0	45035	85	1
0	45036	85	1
0	45037	85	1
0	45058	85.05	1
0	45059	85.05	1
0	45101	85.1	1
0	45102	85.1	1
0	45103	85.1	1
0	45104	85.1	1
0	45128	85.15	1
0	45129	85.15	1
0	45146	85.2	1
0	45147	85.2	1
0	45148	85.2	1
0	45149	85.2	1
0	45170	85.25	1
0	45171	85.25	1
0	45188	85.3	1
0	45189	85.3	1
0	45190	85.3	1
0	45191	85.3	1
0	45212	85.35	1
0	45213	85.35	1
0	45230	85.4	1
0	45231	85.4	1
0	45232	85.4	1
0	45233	85.4	1
0	45254	85.45	1
0	45255	85.45	1
0	45316	85.5	1
0	45317	85.5	1
0	45318	85.5	1
0	45319	85.5	1
0	45340	85.55	1
0	45341	85.55	1
0	45358	85.6	1
0	45359	85.6	1
0	45360	85.6	1
0	45361	85.6	1
0	45405	85.65	1
0	45406	85.65	1
0	45423	85.7	1
0	45424	85.7	1
0	45425	85.7	1
0	45426	85.7	1
0	45447	85.75	1
0	45448	85.75	1
0	45465	85.8	1
0	45466	85.8	1
0	45467	85.8	1
0	45468	85.8	1
0	45489	85.85	1
0	45490	85.85	1
0	45507	85.9	1
0	45508	85.9	1
0	45509	85.9	1
0	45510	85.9	1
[...]
0	46806	88.3	1
0	46827	88.35	1
0	46828	88.35	1
0	46868	88.4	1
0	46869	88.4	1
0	46870	88.4	1
0	46871	88.4	1
0	46892	88.45	1
0	46893	88.45	1
0	46910	88.5	1
0	46911	88.5	1
0	46912	88.5	1
0	46913	88.5	1
0	46934	88.55	1
0	46935	88.55	1
0	46952	88.6	1
0	46953	88.6	1
0	46954	88.6	1
0	46955	88.6	1
0	46976	88.65	1
0	46977	88.65	1
0	46994	88.7	1
0	46995	88.7	1
0	46996	88.7	1
0	46997	88.7	1
0	47018	88.75	1
0	47019	88.75	1
0	47059	88.8	1
0	47060	88.8	1
0	47061	88.8	1
0	47062	88.8	1
0	47083	88.85	1
0	47084	88.85	1
0	47101	88.9	1
0	47102	88.9	1
0	47103	88.9	1
0	47104	88.9	1
0	47148	88.95	1
0	47149	88.95	1
0	47167	89	1
0	47168	89	1
0	47169	89	1
0	47170	89	1
0	47191	89.05	1
0	47192	89.05	1
0	47211	89.1	1
0	47212	89.1	1
0	47213	89.1	1
0	47214	89.1	1
0	47238	89.15	1
0	47239	89.15	1
0	47256	89.2	1
0	47257	89.2	1
0	47258	89.2	1
0	47259	89.2	1
0	47280	89.25	1
0	47281	89.25	1
0	47298	89.3	1
0	47299	89.3	1
0	47300	89.3	1
0	47301	89.3	1
0	47366	89.35	1
0	47367	89.35	1
0	47384	89.4	1
0	47385	89.4	1
0	47386	89.4	1
0	47387	89.4	1
0	47408	89.45	1
0	47409	89.45	1
0	47449	89.5	1
0	47450	89.5	1
0	47451	89.5	1
0	47452	89.5	1
0	47473	89.55	1
0	47474	89.55	1
0	47491	89.6	1
0	47492	89.6	1
0	47493	89.6	1
0	47494	89.6	1
0	47515	89.65	1
0	47516	89.65	1
0	47533	89.7	1
0	47534	89.7	1
0	47535	89.7	1
0	47536	89.7	1
0	47557	89.75	1
0	47558	89.75	1
0	47575	89.8	1
0	47576	89.8	1
0	47577	89.8	1
0	47578	89.8	1
0	47599	89.85	1
0	47600	89.85	1
0	47640	89.9	1
0	47641	89.9	1
0	47642	89.9	1
0	47643	89.9	1
0	47664	89.95	1
0	47665	89.95	1
0	47683	90	1
0	47684	90	1
0	47685	90	1
0	47686	90	1
0	47730	90.05	1
0	47731	90.05	1
0	47750	90.1	1
0	47751	90.1	1
0	47752	90.1	1
0	47753	90.1	1
0	47777	90.15	1
0	47778	90.15	1
0	47795	90.2	1
0	47796	90.2	1
0	47797	90.2	1
0	47798	90.2	1
0	47819	90.25	1
0	47820	90.25	1
0	47837	90.3	1
0	47838	90.3	1
0	47839	90.3	1
0	47840	90.3	1
0	47861	90.35	1
0	47862	90.35	1
0	47879	90.4	1
0	47880	90.4	1
0	47881	90.4	1
0	47882	90.4	1
0	47947	90.45	1
0	47948	90.45	1
0	47965	90.5	1
0	47966	90.5	1
0	47967	90.5	1
0	47968	90.5	1
0	47989	90.55	1
0	47990	90.55	1
0	48030	90.6	1
0	48031	90.6	1
0	48032	90.6	1
0	48033	90.6	1
0	48054	90.65	1
0	48055	90.65	1
0	48072	90.7	1
0	48073	90.7	1
0	48074	90.7	1
0	48075	90.7	1
0	48096	90.75	1
0	48097	90.75	1
0	48114	90.8	1
0	48115	90.8	1
0	48116	90.8	1
0	48117	90.8	1
0	48138	90.85	1
0	48139	90.85	1
0	48156	90.9	1
0	48157	90.9	1
0	48158	90.9	1
0	48159	90.9	1
0	48180	90.95	1
0	48181	90.95	1
0	48222	91	1
0	48223	91	1
0	48224	91	1
0	48225	91	1
0	48246	91.05	1
0	48247	91.05	1
0	48266	91.1	1
0	48267	91.1	1
0	48268	91.1	1
0	48269	91.1	1
0	48316	91.15	1
0	48317	91.15	1
0	48334	91.2	1
0	48335	91.2	1
0	48336	91.2	1
0	48337	91.2	1
0	48358	91.25	1
0	48359	91.25	1
0	48376	91.3	1
0	48377	91.3	1
0	48378	91.3	1
0	48379	91.3	1
0	48400	91.35	1
0	48401	91.35	1
0	48418	91.4	1
0	48419	91.4	1
0	48420	91.4	1
0	48421	91.4	1
0	48442	91.45	1
0	48443	91.45	1
0	48460	91.5	1
0	48461	91.5	1
0	48462	91.5	1
0	48463	91.5	1
0	48528	91.55	1
0	48529	91.55	1
0	48546	91.6	1
0	48547	91.6	1
0	48548	91.6	1
0	48549	91.6	1
0	48570	91.65	1
0	48571	91.65	1
0	48611	91.7	1
0	48612	91.7	1
0	48613	91.7	1
0	48614	91.7	1
0	48635	91.75	1
0	48636	91.75	1
0	48653	91.8	1
0	48654	91.8	1
0	48655	91.8	1
0	48656	91.8	1
0	48677	91.85	1
0	48678	91.85	1
0	48695	91.9	1
0	48696	91.9	1
0	48697	91.9	1
0	48698	91.9	1
0	48719	91.95	1
0	48720	91.95	1
0	48738	92	1
0	48739	92	1
0	48740	92	1
0	48741	92	1
0	48762	92.05	1
0	48763	92.05	1
0	48805	92.1	1
0	48806	92.1	1
0	48807	92.1	1
0	48808	92.1	1
0	48832	92.15	1
0	48833	92.15	1
0	48850	92.2	1
0	48851	92.2	1
0	48852	92.2	1
0	48853	92.2	1
0	48897	92.25	1
0	48898	92.25	1
0	48915	92.3	1
0	48916	92.3	1
0	48917	92.3	1
0	48918	92.3	1
0	48939	92.35	1
0	48940	92.35	1
0	48957	92.4	1
0	48958	92.4	1
0	48959	92.4	1
0	48960	92.4	1
0	48981	92.45	1
0	48982	92.45	1
0	48999	92.5	1
0	49000	92.5	1
0	49001	92.5	1
0	49002	92.5	1
0	49023	92.55	1
0	49024	92.55	1
0	49041	92.6	1
0	49042	92.6	1
0	49043	92.6	1
0	49044	92.6	1
0	49093	92.65	1
0	49094	92.65	1
0	49111	92.7	1
0	49112	92.7	1
0	49113	92.7	1
0	49114	92.7	1
0	49135	92.75	1
0	49136	92.75	1
0	49176	92.8	1
0	49177	92.8	1
0	49178	92.8	1
0	49179	92.8	1
0	49200	92.85	1
0	49201	92.85	1
0	49218	92.9	1
0	49219	92.9	1
0	49220	92.9	1
0	49221	92.9	1
0	49242	92.95	1
0	49243	92.95	1
0	49261	93	1
0	49262	93	1
0	49263	93	1
0	49264	93	1
0	49285	93.05	1
0	49286	93.05	1
0	49305	93.1	1
0	49306	93.1	1
0	49307	93.1	1
0	49308	93.1	1
0	49332	93.15	1
0	49333	93.15	1
0	49407	93.2	1
0	49408	93.2	1
0	49409	93.2	1
0	49410	93.2	1
0	49434	93.25	1
0	49435	93.25	1
0	49452	93.3	1
0	49453	93.3	1
0	49454	93.3	1
0	49455	93.3	1
0	49499	93.35	1
0	49500	93.35	1
0	49517	93.4	1
0	49518	93.4	1
0	49519	93.4	1
0	49520	93.4	1
0	49541	93.45	1
0	49542	93.45	1
0	49559	93.5	1
0	49560	93.5	1
0	49561	93.5	1
0	49562	93.5	1
0	49583	93.55	1
0	49584	93.55	1
0	49601	93.6	1
0	49602	93.6	1
0	49603	93.6	1
0	49604	93.6	1
0	49625	93.65	1
0	49626	93.65	1
0	49643	93.7	1
0	49644	93.7	1
0	49645	93.7	1
0	49646	93.7	1
0	49711	93.75	1
0	49712	93.75	1
0	49729	93.8	1
0	49730	93.8	1
0	49731	93.8	1
0	49732	93.8	1
0	49753	93.85	1
0	49754	93.85	1
0	49794	93.9	1
0	49795	93.9	1
0	49796	93.9	1
0	49797	93.9	1
0	49818	93.95	1
0	49819	93.95	1
0	49837	94	1
0	49838	94	1
0	49839	94	1
0	49840	94	1
0	49861	94.05	1
0	49862	94.05	1
0	49881	94.1	1
0	49882	94.1	1
0	49883	94.1	1
0	49884	94.1	1
0	49908	94.15	1
0	49909	94.15	1
0	49926	94.2	1
0	49927	94.2	1
0	49928	94.2	1
0	49929	94.2	1
0	49950	94.25	1
0	49951	94.25	1
0	50012	94.3	1
0	50013	94.3	1
0	50014	94.3	1
0	50015	94.3	1
0	50036	94.35	1
0	50037	94.35	1
0	50054	94.4	1
0	50055	94.4	1
0	50056	94.4	1
0	50057	94.4	1
0	50101	94.45	1
0	50102	94.45	1
0	50119	94.5	1
0	50120	94.5	1
0	50121	94.5	1
0	50122	94.5	1
0	50143	94.55	1
0	50144	94.55	1
0	50161	94.6	1
0	50162	94.6	1
0	50163	94.6	1
0	50164	94.6	1
0	50185	94.65	1
0	50186	94.65	1
0	50203	94.7	1
0	50204	94.7	1
0	50205	94.7	1
0	50206	94.7	1
0	50227	94.75	1
0	50228	94.75	1
0	50245	94.8	1
0	50246	94.8	1
0	50247	94.8	1
0	50248	94.8	1
0	50292	94.85	1
0	50293	94.85	1
0	50310	94.9	1
0	50311	94.9	1
0	50312	94.9	1
0	50313	94.9	1
0	50334	94.95	1
0	50335	94.95	1
0	50376	95	1
0	50377	95	1
0	50378	95	1
0	50379	95	1
0	50400	95.05	1
0	50401	95.05	1
0	50420	95.1	1
0	50421	95.1	1
0	50422	95.1	1
0	50423	95.1	1
0	50447	95.15	1
0	50448	95.15	1
0	50465	95.2	1
0	50466	95.2	1
0	50467	95.2	1
0	50468	95.2	1
0	50489	95.25	1
0	50490	95.25	1
0	50507	95.3	1
0	50508	95.3	1
0	50509	95.3	1
0	50510	95.3	1
0	50531	95.35	1
0	50532	95.35	1
0	50593	95.4	1
0	50594	95.4	1
0	50595	95.4	1
0	50596	95.4	1
0	50617	95.45	1
0	50618	95.45	1
0	50635	95.5	1
0	50636	95.5	1
0	50637	95.5	1
0	50638	95.5	1
0	50682	95.55	1
0	50683	95.55	1
0	50700	95.6	1
0	50701	95.6	1
0	50702	95.6	1
0	50703	95.6	1
0	50724	95.65	1
0	50725	95.65	1
0	50742	95.7	1
0	50743	95.7	1
0	50744	95.7	1
0	50745	95.7	1
0	50766	95.75	1
0	50767	95.75	1
0	50784	95.8	1
0	50785	95.8	1
0	50786	95.8	1
0	50787	95.8	1
0	50808	95.85	1
0	50809	95.85	1
0	50826	95.9	1
0	50827	95.9	1
0	50828	95.9	1
0	50829	95.9	1
0	50873	95.95	1
0	50874	95.95	1
0	50892	96	1
0	50893	96	1
0	50894	96	1
0	50895	96	1
0	50916	96.05	1
0	50917	96.05	1
0	50959	96.1	1
0	50960	96.1	1
0	50961	96.1	1
0	50962	96.1	1
0	50986	96.15	1
0	50987	96.15	1
0	51004	96.2	1
0	51005	96.2	1
0	51006	96.2	1
0	51007	96.2	1
0	51028	96.25	1
0	51029	96.25	1
0	51046	96.3	1
0	51047	96.3	1
0	51048	96.3	1
0	51049	96.3	1
0	51070	96.35	1
0	51071	96.35	1
0	51088	96.4	1
0	51089	96.4	1
0	51090	96.4	1
0	51091	96.4	1
0	51112	96.45	1
0	51113	96.45	1
0	51174	96.5	1
0	51175	96.5	1
0	51176	96.5	1
0	51177	96.5	1
0	51198	96.55	1
0	51199	96.55	1
0	51216	96.6	1
0	51217	96.6	1
0	51218	96.6	1
0	51219	96.6	1
0	51263	96.65	1
0	51264	96.65	1
0	51281	96.7	1
0	51282	96.7	1
0	51283	96.7	1
0	51284	96.7	1
0	51305	96.75	1
0	51306	96.75	1
0	51323	96.8	1
0	51324	96.8	1
0	51325	96.8	1
0	51326	96.8	1
0	51347	96.85	1
0	51348	96.85	1
0	51365	96.9	1
0	51366	96.9	1
0	51367	96.9	1
0	51368	96.9	1
0	51389	96.95	1
0	51390	96.95	1
0	51408	97	1
0	51409	97	1
0	51410	97	1
0	51411	97	1
0	51455	97.05	1
0	51456	97.05	1
0	51475	97.1	1
0	51476	97.1	1
0	51477	97.1	1
0	51478	97.1	1
0	51502	97.15	1
0	51503	97.15	1
0	51543	97.2	1
0	51544	97.2	1
0	51545	97.2	1
0	51546	97.2	1
0	51567	97.25	1
0	51568	97.25	1
0	51585	97.3	1
0	51586	97.3	1
0	51587	97.3	1
0	51588	97.3	1
0	51609	97.35	1
0	51610	97.35	1
0	51627	97.4	1
0	51628	97.4	1
0	51629	97.4	1
0	51630	97.4	1
0	51651	97.45	1
0	51652	97.45	1
0	51669	97.5	1
0	51670	97.5	1
0	51671	97.5	1
0	51672	97.5	1
0	51693	97.55	1
0	51694	97.55	1
0	51755	97.6	1
0	51756	97.6	1
0	51757	97.6	1
0	51758	97.6	1
0	51779	97.65	1
0	51780	97.65	1
0	51797	97.7	1
0	51798	97.7	1
0	51799	97.7	1
0	51800	97.7	1
0	51844	97.75	1
0	51845	97.75	1
0	51862	97.8	1
0	51863	97.8	1
0	51864	97.8	1
0	51865	97.8	1
0	51886	97.85	1
0	51887	97.85	1
0	51904	97.9	1
0	51905	97.9	1
0	51906	97.9	1
0	51907	97.9	1
0	51928	97.95	1
0	51929	97.95	1
0	51947	98	1
0	51948	98	1
0	51949	98	1
0	51950	98	1
0	51971	98.05	1
0	51972	98.05	1
0	51991	98.1	1
0	51992	98.1	1
0	51993	98.1	1
0	51994	98.1	1
0	52062	98.15	1
0	52063	98.15	1
0	52080	98.2	1
0	52081	98.2	1
0	52082	98.2	1
0	52083	98.2	1
0	52104	98.25	1
0	52105	98.25	1
0	52145	98.3	1
0	52146	98.3	1
0	52147	98.3	1
0	52148	98.3	1
0	52169	98.35	1
0	52170	98.35	1
0	52187	98.4	1
0	52188	98.4	1
0	52189	98.4	1
0	52190	98.4	1
0	52211	98.45	1
0	52212	98.45	1
0	52229	98.5	1
0	52230	98.5	1
0	52231	98.5	1
0	52232	98.5	1
0	52253	98.55	1
0	52254	98.55	1
0	52271	98.6	1
0	52272	98.6	1
0	52273	98.6	1
0	52274	98.6	1
0	52295	98.65	1
0	52296	98.65	1
0	52336	98.7	1
0	52337	98.7	1
0	52338	98.7	1
0	52339	98.7	1
0	52360	98.75	1
0	52361	98.75	1
0	52378	98.8	1
0	52379	98.8	1
0	52380	98.8	1
0	52381	98.8	1
0	52425	98.85	1
0	52426	98.85	1
0	52443	98.9	1
0	52444	98.9	1
0	52445	98.9	1
0	52446	98.9	1
0	52467	98.95	1
0	52468	98.95	1
0	52486	99	1
0	52487	99	1
0	52488	99	1
0	52489	99	1
0	52510	99.05	1
0	52511	99.05	1
0	52530	99.1	1
0	52531	99.1	1
0	52532	99.1	1
0	52533	99.1	1
0	52557	99.15	1
0	52558	99.15	1
0	52575	99.2	1
0	52576	99.2	1
0	52577	99.2	1
0	52578	99.2	1
0	52643	99.25	1
0	52644	99.25	1
0	52661	99.3	1
0	52662	99.3	1
0	52663	99.3	1
0	52664	99.3	1
0	52685	99.35	1
0	52686	99.35	1
0	52726	99.4	1
0	52727	99.4	1
0	52728	99.4	1
0	52729	99.4	1
0	52750	99.45	1
0	52751	99.45	1
0	52768	99.5	1
0	52769	99.5	1
0	52770	99.5	1
0	52771	99.5	1
0	52792	99.55	1
0	52793	99.55	1
0	52810	99.6	1
0	52811	99.6	1
0	52812	99.6	1
0	52813	99.6	1
0	52834	99.65	1
0	52835	99.65	1
0	52852	99.7	1
0	52853	99.7	1
0	52854	99.7	1
0	52855	99.7	1
0	52876	99.75	1
0	52877	99.75	1
0	52917	99.8	1
0	52918	99.8	1
0	52919	99.8	1
0	52920	99.8	1
0	52941	99.85	1
0	52942	99.85	1
0	52959	99.9	1
0	52960	99.9	1
0	52961	99.9	1
0	52962	99.9	1
0	53006	99.95	1
0	53007	99.95	1
0	53025	100	1
0	53026	100	1
0	53027	100	1
0	53028	100	1
1	25	0.1	nan
1	27	0.1	nan
1	459	1.1	nan
1	460	1.1	nan
1	985	2.1	nan
1	986	2.1	nan
1	1511	3.1	nan
1	1512	3.1	nan
1	2037	4.1	nan
1	2038	4.1	nan
1	2565	5.1	nan
1	2566	5.1	nan
1	3093	6.1	nan
1	3094	6.1	nan
1	3575	7.1	nan
1	3576	7.1	nan
1	4103	8.1	nan
1	4104	8.1	nan
1	4631	9.1	nan
1	4632	9.1	nan
1	5159	10.1	nan
1	5160	10.1	nan
1	5805	11.1	nan
1	5806	11.1	nan
1	6422	12.1	nan
1	6423	12.1	nan
1	6970	13.1	nan
1	6971	13.1	nan
1	7518	14.1	nan
1	7519	14.1	nan
1	8066	15.1	nan
1	8067	15.1	nan
1	8615	16.1	nan
1	8616	16.1	nan
1	9164	17.1	nan
1	9165	17.1	nan
1	9667	18.1	nan
1	9668	18.1	nan
1	10216	19.1	nan
1	10217	19.1	nan
1	10765	20.1	nan
1	10766	20.1	nan
1	11314	21.1	nan
1	11315	21.1	nan
1	11863	22.1	nan
1	11864	22.1	nan
1	12366	23.1	nan
1	12367	23.1	nan
1	12915	24.1	nan
1	12916	24.1	nan
1	13464	25.1	nan
1	13465	25.1	nan
1	14013	26.1	nan
1	14014	26.1	nan
1	14562	27.1	nan
1	14563	27.1	nan
1	15111	28.1	nan
1	15112	28.1	nan
1	15614	29.1	nan
1	15615	29.1	nan
1	16163	30.1	nan
1	16164	30.1	nan
1	16712	31.1	nan
1	16713	31.1	nan
1	17261	32.1	nan
1	17262	32.1	nan
1	17810	33.1	nan
1	17811	33.1	nan
1	18313	34.1	nan
1	18314	34.1	nan
1	18862	35.1	nan
1	18863	35.1	nan
1	19411	36.1	nan
1	19412	36.1	nan
1	19960	37.1	nan
1	19961	37.1	nan
1	20509	38.1	nan
1	20510	38.1	nan
1	21058	39.1	nan
1	21059	39.1	nan
1	21561	40.1	nan
1	21562	40.1	nan
1	22110	41.1	nan
1	22111	41.1	nan
1	22659	42.1	nan
1	22660	42.1	nan
1	23208	43.1	nan
1	23209	43.1	nan
1	23716	44.1	nan
1	23717	44.1	nan
1	24236	45.1	nan
1	24237	45.1	nan
1	24785	46.1	nan
1	24786	46.1	nan
1	25334	47.1	nan
1	25335	47.1	nan
1	25883	48.1	nan
1	25884	48.1	nan
1	26324	49.1	nan
1	26325	49.1	nan
1	26843	50.1	nan
1	26844	50.1	nan
1	27403	51.1	nan
1	27404	51.1	nan
1	27942	52.1	nan
1	27943	52.1	nan
1	28481	53.1	nan
1	28482	53.1	nan
1	28997	54.1	nan
1	28998	54.1	nan
1	29497	55.1	nan
1	29498	55.1	nan
1	29928	56.1	nan
1	29929	56.1	nan
1	30509	57.1	nan
1	30510	57.1	nan
1	31025	58.1	nan
1	31026	58.1	nan
1	31564	59.1	nan
1	31565	59.1	nan
1	32080	60.1	nan
1	32081	60.1	nan
1	32619	61.1	nan
1	32620	61.1	nan
1	33158	62.1	nan
1	33159	62.1	nan
1	33697	63.1	nan
1	33698	63.1	nan
1	34216	64.1	nan
1	34217	64.1	nan
1	34642	65.1	nan
1	34643	65.1	nan
1	35202	66.1	nan
1	35203	66.1	nan
1	35741	67.1	nan
1	35742	67.1	nan
1	36257	68.1	nan
1	36258	68.1	nan
1	36801	69.1	nan
1	36802	69.1	nan
1	37317	70.1	nan
1	37318	70.1	nan
1	37856	71.1	nan
1	37857	71.1	nan
1	38400	72.1	nan
1	38401	72.1	nan
1	38926	73.1	nan
1	38927	73.1	nan
1	39352	74.1	nan
1	39353	74.1	nan
1	39889	75.1	nan
1	39890	75.1	nan
1	40405	76.1	nan
1	40406	76.1	nan
1	40949	77.1	nan
1	40950	77.1	nan
1	41488	78.1	nan
1	41489	78.1	nan
1	42009	79.1	nan
1	42010	79.1	nan
1	42435	80.1	nan
1	42436	80.1	nan
1	42972	81.1	nan
1	42973	81.1	nan
1	43488	82.1	nan
1	43489	82.1	nan
1	44021	83.1	nan
1	44022	83.1	nan
1	44560	84.1	nan
1	44561	84.1	nan
1	45099	85.1	nan
1	45100	85.1	nan
1	45615	86.1	nan
1	45616	86.1	nan
1	46131	87.1	nan
1	46132	87.1	nan
1	46670	88.1	nan
1	46671	88.1	nan
1	47209	89.1	nan
1	47210	89.1	nan
1	47748	90.1	nan
1	47749	90.1	nan
1	48264	91.1	nan
1	48265	91.1	nan
1	48803	92.1	nan
1	48804	92.1	nan
1	49303	93.1	nan
1	49304	93.1	nan
1	49879	94.1	nan
1	49880	94.1	nan
1	50418	95.1	nan
1	50419	95.1	nan
1	50957	96.1	nan
1	50958	96.1	nan
1	51473	97.1	nan
1	51474	97.1	nan
1	51989	98.1	nan
1	51990	98.1	nan
1	52528	99.1	nan
1	52529	99.1	nan
2	5698	11.033431093679	141
2	5717	11.047271105662	282
2	5754	11.061111117654	423
2	5773	11.074951129654	564
2	5792	11.088791141662	705
2	5841	11.102631153678	846
2	5860	11.116471165702	987
2	5879	11.130311177733	1128
2	5898	11.144151189773	1269
2	5935	11.157991201822	1410
2	5954	11.171831213878	1551
2	6193	11.583432253194	1692
2	6506	12.133433443579	1833
2	7097	13.233435918636	1974
2	7688	14.333438522347	2115
2	8279	15.433441258466	2256
2	8871	16.533444131004	2397
2	9463	17.633447144227	2538
2	9769	18.183448704999	2679
2	10361	19.283451937806	2820
2	10953	20.383455323081	2961
2	11545	21.483458865979	3102
2	12137	22.583462571912	3243
2	12450	23.133464487776	3384
2	13042	24.233468448947	3525
2	13634	25.333472587754	3666
2	14226	26.433476910451	3807
2	14818	27.53348142352	3948
2	15410	28.633486133649	4089
2	15716	29.183488564757	4230
2	16308	30.283493583442	4371
2	16900	31.383498816722	4512
2	17492	32.483504271873	4653
2	18084	33.583509956275	4794
2	18397	34.133512886773	4935
2	18989	35.233518929028	5076
2	19581	36.33352521918	5217
2	20173	37.433531764627	5358
2	20765	38.533538572645	5499
2	21357	39.6335456503	5640
2	21663	40.183549292375	5781
2	22255	41.28355678708	5922
2	22847	42.383564567602	6063
2	23421	43.48357263953	6204
2	23795	44.183577930204	6345
2	24381	45.283586489143	6486
2	24973	46.383595350485	6627
2	25565	47.483604516534	6768
2	26602	49.633623314246	6909
2	26621	49.647463366151	7050
2	26923	50.183626728067	7191
2	26942	50.197466728067	7332
2	27523	51.283626728067	7473
2	28104	52.383626728067	7614
2	28685	53.483626728067	7755
2	30159	56.483626728067	7896
2	30178	56.497466728067	8037
2	30221	56.511306728067	8178
2	30778	57.583626728067	8319
2	31085	58.133626728067	8460
2	31666	59.233626728067	8601
2	32247	60.333626728067	8742
2	32828	61.433626728067	8883
2	33409	62.533626728067	9024
2	33992	63.633626728067	9165
2	34011	63.647466728067	9306
2	34746	65.233626728067	9447
2	34765	65.247466728067	9588
2	35346	66.333626728067	9729
2	35927	67.433626728067	9870
2	36788	69.083626728067	10011
2	37094	69.633626728067	10152
2	37395	70.183626728067	10293
2	38261	71.833626728067	10434
2	38847	72.933626728067	10575
2	39582	74.533626728067	10716
2	39601	74.547466728067	10857
2	40182	75.633626728067	10998
2	40768	76.733626728067	11139
2	41069	77.283626728067	11280
2	41650	78.383626728067	11421
2	42665	80.533626728067	11562
2	42684	80.547466728067	11703
2	43265	81.633626728067	11844
2	43566	82.183626728067	11985
2	44141	83.283626728067	12126
2	44722	84.383626728067	12267
2	45303	85.483626728067	12408
2	45884	86.583626728067	12549
2	46191	87.133626728067	12690
2	46772	88.233626728067	12831
2	47353	89.333626728067	12972
2	47934	90.433626728067	13113
2	48515	91.533626728067	13254
2	49383	93.183626728067	13395
2	49402	93.197466728067	13536
2	49698	93.733626728067	13677
2	49999	94.283626728067	13818
2	50580	95.383626728067	13959
2	51161	96.483626728067	14100
2	51742	97.583626728067	14241
2	52049	98.133626728067	14382
2	52630	99.233626728067	14523
3	5698	11.033431093679	141
3	5717	11.047271105662	282
3	5754	11.061111117654	423
3	5773	11.074951129654	564
3	5792	11.088791141662	705
3	5841	11.102631153678	846
3	5860	11.116471165702	987
3	5879	11.130311177733	1128
3	5898	11.144151189773	1269
3	5935	11.157991201822	1410
3	5954	11.171831213878	1551
3	6193	11.583432253194	1692
3	6506	12.133433443579	1833
3	7097	13.233435918636	1974
3	7688	14.333438522347	2115
3	8279	15.433441258466	2256
3	8871	16.533444131004	2397
3	9463	17.633447144227	2538
3	9769	18.183448704999	2679
3	10361	19.283451937806	2820
3	10953	20.383455323081	2961
3	11545	21.483458865979	3102
3	12137	22.583462571912	3243
3	12450	23.133464487776	3384
3	13042	24.233468448947	3525
3	13634	25.333472587754	3666
3	14226	26.433476910451	3807
3	14818	27.53348142352	3948
3	15410	28.633486133649	4089
3	15716	29.183488564757	4230
3	16308	30.283493583442	4371
3	16900	31.383498816722	4512
3	17492	32.483504271873	4653
3	18084	33.583509956275	4794
3	18397	34.133512886773	4935
3	18989	35.233518929028	5076
3	19581	36.33352521918	5217
3	20173	37.433531764627	5358
3	20765	38.533538572645	5499
3	21357	39.6335456503	5640
3	21663	40.183549292375	5781
3	22255	41.28355678708	5922
3	22847	42.383564567602	6063
3	23421	43.48357263953	6204
3	23795	44.183577930204	6345
3	24381	45.283586489143	6486
3	24973	46.383595350485	6627
3	25565	47.483604516534	6768
3	26602	49.633623314246	6909
3	26621	49.647463366151	7050
3	26923	50.183626728067	7191
3	26942	50.197466728067	7332
3	27523	51.283626728067	7473
3	28104	52.383626728067	7614
3	28685	53.483626728067	7755
3	30159	56.483626728067	7896
3	30178	56.497466728067	8037
3	30221	56.511306728067	8178
3	30778	57.583626728067	8319
3	31085	58.133626728067	8460
3	31666	59.233626728067	8601
3	32247	60.333626728067	8742
3	32828	61.433626728067	8883
3	33409	62.533626728067	9024
3	33992	63.633626728067	9165
3	34011	63.647466728067	9306
3	34746	65.233626728067	9447
3	34765	65.247466728067	9588
3	35346	66.333626728067	9729
3	35927	67.433626728067	9870
3	36788	69.083626728067	10011
3	37094	69.633626728067	10152
3	37395	70.183626728067	10293
3	38261	71.833626728067	10434
3	38847	72.933626728067	10575
3	39582	74.533626728067	10716
3	39601	74.547466728067	10857
3	40182	75.633626728067	10998
3	40768	76.733626728067	11139
3	41069	77.283626728067	11280
3	41650	78.383626728067	11421
3	42665	80.533626728067	11562
3	42684	80.547466728067	11703
3	43265	81.633626728067	11844
3	43566	82.183626728067	11985
3	44141	83.283626728067	12126
3	44722	84.383626728067	12267
3	45303	85.483626728067	12408
3	45884	86.583626728067	12549
3	46191	87.133626728067	12690
3	46772	88.233626728067	12831
3	47353	89.333626728067	12972
3	47934	90.433626728067	13113
3	48515	91.533626728067	13254
3	49383	93.183626728067	13395
3	49402	93.197466728067	13536
3	49698	93.733626728067	13677
3	49999	94.283626728067	13818
3	50580	95.383626728067	13959
3	51161	96.483626728067	14100
3	51742	97.583626728067	14241
3	52049	98.133626728067	14382
3	52630	99.233626728067	14523

