version 2
run A-0-20210307-03:17:16-11120
attr configname A
attr datetime 20210307-03:17:16
attr experiment A
attr inifile GwSimV3_2021.ini
attr iterationvars ""
attr iterationvarsf ""
attr measurement ""
attr network NetworkTormV2
attr processid 11120
attr repetition 0
attr replication #0
attr resultdir results
attr runnumber 0
attr seedset 0
param **.mobility.traceFile "\"AllPaths/paths_dev/opaqs_A.movements\""
param **.numNodes 2
param **.application.dataGenerationInterval 1s
param **.application.dataSizeInBytes 10
param **.application.ttl 999999s
param **application.nodesThatGen false
param **application.nodesGenMsg "\"\""
param **application.startMultipleMsg true
param **application.numMultipleMsg 100
param **application.hopsListSize 50
param **.application.endGeneratingMsg 149s
param **.routingLayer "\"RoutingLqeGw\""
param **.routing.maximumCacheSize 5000byte
param **.routing.maximumHopCount 25
param **.routing.useTTL false
param **.routing.waitBFsend 0.1
param **.routing.max_age 999999s
param **.routing.gateway_list "\"\""
param **.routing.actual_gateway "\"\""
param **.routing.gwCheckPeriod 5s
param **.neighboring.resetGPeriod 999s
param **.wirelessIfc.wirelessRange 40m
param **.numNodes 2
param **.application.usedRNG 1
param **.application.dataGenerationInterval 1s
param **.application.dataSizeInBytes 10
param **.application.ttl 999999s
param **application.destinationAddr "\"Wf:00:00:00:00:02\""
param **application.destinationBTAddr "\"Bt:00:00:00:00:02\""
param **application.nodesThatGen true
param **application.nodesGenMsg "\"0\""
param **application.startMultipleMsg true
param **application.numMultipleMsg 100
param **application.hopsListSize 50
param **.application.endGeneratingMsg 999999s
param **.routingLayer "\"RoutingLqeGw\""
param **.routing.maximumCacheSize 5000byte
param **.routing.maximumHopCount 25
param **.routing.useTTL false
param **.routing.waitBFsend 0.1
param **.routing.max_age 999999s
param **.routing.gateway_list "\"\""
param **.routing.actual_gateway "\"\""
param **.routing.gwCheckPeriod 5s
param **.neighboring.antiEntropyInterval 500ms
param **.neighboring.maximumRandomBackoffDuration 1s
param **.neighboring.delayPerDataMsg 0.1
param **neighboring.usedRNG 2
param **.neighboring.GWAddr "\"Wf:00:00:00:00:02\""
param **.neighboring.sendWifiFirst true
param **.neighboring.max_age 999999s
param **.neighboring.max_absent_time 1s
param **.neighboring.maxLengthGraph 15
param **.wirelessIfc.wirelessRange 40m
param **.wirelessIfc.neighbourScanInterval 50ms
param **.wirelessIfc.bandwidthBitRate 100000bps
param **.wirelessIfc.wirelessHeaderSize 32byte
param **.wirelessIfc.minSSI -90
param **.wirelessIfc.limitQueueTime 400ms
param **.wirelessIfc.my_limit_rate 0bps
param **.bluetoothIfc.wirelessRange 40m
param **.bluetoothIfc.neighbourScanInterval 100ms
param **.bluetoothIfc.bandwidthBitRate 100000bps
param **.bluetoothIfc.wirelessHeaderSize 16byte
param **.bluetoothIfc.minSSI -90
param **.mobilityType "\"BonnMotionMobility\""
param **.mobility.traceFile "\"paths/Moves2.movements\""
param **.mobility.is3D false
param **.mobility.nodeId -1

vector 0 NetworkTormV2 neighbourhoodSize:vector ETV
attr source neighbourhoodSize
vector 1 NetworkTormV2 deliveryRatio:vector ETV
attr source sum(totalDataBytesReceived)/sum(totalDataBytesReceivableByAllNodes)
vector 2 NetworkTormV2 dataBytesReceivedSum:vector ETV
attr source sum(dataBytesReceived)
vector 3 NetworkTormV2 totalBytesReceivedSum:vector ETV
attr source sum(totalBytesReceived)
0	7	0.05	1
0	8	0.05	1
0	26	0.1	1
0	28	0.1	1
0	30	0.1	1
0	31	0.1	1
0	54	0.15	1
0	55	0.15	1
0	72	0.2	1
0	73	0.2	1
0	75	0.2	1
0	76	0.2	1
0	97	0.25	1
0	98	0.25	1
0	115	0.3	1
0	116	0.3	1
0	118	0.3	1
0	119	0.3	1
0	140	0.35	1
0	141	0.35	1
0	158	0.4	1
0	159	0.4	1
0	161	0.4	1
0	162	0.4	1
0	183	0.45	1
0	184	0.45	1
0	201	0.5	1
0	202	0.5	1
0	204	0.5	1
0	205	0.5	1
0	226	0.55	1
0	227	0.55	1
0	244	0.6	1
0	245	0.6	1
0	247	0.6	1
0	248	0.6	1
0	269	0.65	1
0	270	0.65	1
0	287	0.7	1
0	288	0.7	1
0	290	0.7	1
0	291	0.7	1
0	312	0.75	1
0	313	0.75	1
0	330	0.8	1
0	331	0.8	1
0	333	0.8	1
0	334	0.8	1
0	355	0.85	1
0	356	0.85	1
0	373	0.9	1
0	374	0.9	1
0	376	0.9	1
0	377	0.9	1
0	398	0.95	1
0	399	0.95	1
0	416	1	1
0	417	1	1
0	419	1	1
0	420	1	1
0	441	1.05	1
0	442	1.05	1
0	461	1.1	1
0	462	1.1	1
0	464	1.1	1
0	465	1.1	1
0	534	1.15	1
0	535	1.15	1
0	552	1.2	1
0	553	1.2	1
0	555	1.2	1
0	556	1.2	1
0	577	1.25	1
0	578	1.25	1
0	595	1.3	1
0	596	1.3	1
0	598	1.3	1
0	599	1.3	1
0	620	1.35	1
0	621	1.35	1
0	638	1.4	1
0	639	1.4	1
0	641	1.4	1
0	642	1.4	1
0	663	1.45	1
0	664	1.45	1
0	681	1.5	1
0	682	1.5	1
0	684	1.5	1
0	685	1.5	1
0	706	1.55	1
0	707	1.55	1
0	724	1.6	1
0	725	1.6	1
0	727	1.6	1
0	728	1.6	1
0	749	1.65	1
0	750	1.65	1
0	813	1.7	1
0	814	1.7	1
0	816	1.7	1
0	817	1.7	1
0	838	1.75	1
0	839	1.75	1
0	856	1.8	1
0	857	1.8	1
0	859	1.8	1
0	860	1.8	1
0	881	1.85	1
0	882	1.85	1
0	899	1.9	1
0	900	1.9	1
0	902	1.9	1
0	903	1.9	1
0	924	1.95	1
0	925	1.95	1
0	942	2	1
0	943	2	1
0	945	2	1
0	946	2	1
0	967	2.05	1
0	968	2.05	1
0	987	2.1	1
0	988	2.1	1
0	990	2.1	1
0	991	2.1	1
0	1014	2.15	1
0	1015	2.15	1
0	1032	2.2	1
0	1033	2.2	1
0	1035	2.2	1
0	1036	2.2	1
0	1103	2.25	1
0	1104	2.25	1
0	1121	2.3	1
0	1122	2.3	1
0	1124	2.3	1
0	1125	2.3	1
0	1146	2.35	1
0	1147	2.35	1
0	1164	2.4	1
0	1165	2.4	1
0	1167	2.4	1
0	1168	2.4	1
0	1189	2.45	1
0	1190	2.45	1
0	1207	2.5	1
0	1208	2.5	1
0	1210	2.5	1
0	1211	2.5	1
0	1232	2.55	1
0	1233	2.55	1
0	1250	2.6	1
0	1251	2.6	1
0	1253	2.6	1
0	1254	2.6	1
0	1275	2.65	1
0	1276	2.65	1
0	1293	2.7	1
0	1294	2.7	1
0	1296	2.7	1
0	1297	2.7	1
0	1318	2.75	1
0	1319	2.75	1
0	1382	2.8	1
0	1383	2.8	1
0	1385	2.8	1
0	1386	2.8	1
0	1407	2.85	1
0	1408	2.85	1
0	1425	2.9	1
0	1426	2.9	1
0	1428	2.9	1
0	1429	2.9	1
0	1450	2.95	1
0	1451	2.95	1
0	1468	3	1
0	1469	3	1
0	1471	3	1
0	1472	3	1
0	1493	3.05	1
0	1494	3.05	1
0	1513	3.1	1
0	1514	3.1	1
0	1516	3.1	1
0	1517	3.1	1
0	1540	3.15	1
0	1541	3.15	1
0	1558	3.2	1
0	1559	3.2	1
0	1561	3.2	1
0	1562	3.2	1
0	1583	3.25	1
0	1584	3.25	1
0	1601	3.3	1
0	1602	3.3	1
0	1604	3.3	1
0	1605	3.3	1
0	1672	3.35	1
0	1673	3.35	1
0	1690	3.4	1
0	1691	3.4	1
0	1693	3.4	1
0	1694	3.4	1
0	1715	3.45	1
0	1716	3.45	1
0	1733	3.5	1
0	1734	3.5	1
0	1736	3.5	1
0	1737	3.5	1
0	1758	3.55	1
0	1759	3.55	1
0	1776	3.6	1
0	1777	3.6	1
0	1779	3.6	1
0	1780	3.6	1
0	1801	3.65	1
0	1802	3.65	1
0	1819	3.7	1
0	1820	3.7	1
0	1822	3.7	1
0	1823	3.7	1
0	1844	3.75	1
0	1845	3.75	1
0	1862	3.8	1
0	1863	3.8	1
0	1865	3.8	1
0	1866	3.8	1
0	1887	3.85	1
0	1888	3.85	1
0	1951	3.9	1
0	1952	3.9	1
0	1954	3.9	1
0	1955	3.9	1
0	1976	3.95	1
0	1977	3.95	1
0	1994	4	1
0	1995	4	1
0	1997	4	1
0	1998	4	1
0	2019	4.05	1
0	2020	4.05	1
0	2039	4.1	1
0	2040	4.1	1
0	2042	4.1	1
0	2043	4.1	1
0	2066	4.15	1
0	2067	4.15	1
0	2084	4.2	1
0	2085	4.2	1
0	2087	4.2	1
0	2088	4.2	1
0	2109	4.25	1
0	2110	4.25	1
0	2127	4.3	1
0	2128	4.3	1
0	2130	4.3	1
0	2131	4.3	1
0	2152	4.35	1
0	2153	4.35	1
0	2170	4.4	1
0	2171	4.4	1
0	2173	4.4	1
0	2174	4.4	1
0	2241	4.45	1
0	2242	4.45	1
0	2259	4.5	1
0	2260	4.5	1
0	2262	4.5	1
0	2263	4.5	1
0	2284	4.55	1
0	2285	4.55	1
0	2302	4.6	1
0	2303	4.6	1
0	2305	4.6	1
0	2306	4.6	1
0	2327	4.65	1
0	2328	4.65	1
0	2345	4.7	1
0	2346	4.7	1
0	2348	4.7	1
0	2349	4.7	1
0	2370	4.75	1
0	2371	4.75	1
0	2388	4.8	1
0	2389	4.8	1
0	2391	4.8	1
0	2392	4.8	1
0	2413	4.85	1
0	2414	4.85	1
0	2431	4.9	1
0	2432	4.9	1
0	2434	4.9	1
0	2435	4.9	1
0	2456	4.95	1
0	2457	4.95	1
0	2522	5	1
0	2523	5	1
0	2525	5	1
0	2526	5	1
0	2547	5.05	1
0	2548	5.05	1
0	2567	5.1	1
0	2568	5.1	1
0	2570	5.1	1
0	2571	5.1	1
0	2594	5.15	1
0	2595	5.15	1
0	2612	5.2	1
0	2613	5.2	1
0	2615	5.2	1
0	2616	5.2	1
0	2637	5.25	1
0	2638	5.25	1
0	2655	5.3	1
0	2656	5.3	1
0	2658	5.3	1
0	2659	5.3	1
0	2680	5.35	1
0	2681	5.35	1
0	2698	5.4	1
0	2699	5.4	1
0	2701	5.4	1
0	2702	5.4	1
0	2723	5.45	1
0	2724	5.45	1
0	2741	5.5	1
0	2742	5.5	1
0	2744	5.5	1
0	2745	5.5	1
0	2812	5.55	1
0	2813	5.55	1
0	2830	5.6	1
0	2831	5.6	1
0	2833	5.6	1
0	2834	5.6	1
0	2855	5.65	1
0	2856	5.65	1
0	2873	5.7	1
0	2874	5.7	1
0	2876	5.7	1
0	2877	5.7	1
0	2898	5.75	1
0	2899	5.75	1
0	2916	5.8	1
0	2917	5.8	1
0	2919	5.8	1
0	2920	5.8	1
0	2941	5.85	1
0	2942	5.85	1
0	2959	5.9	1
0	2960	5.9	1
0	2962	5.9	1
0	2963	5.9	1
0	2984	5.95	1
0	2985	5.95	1
0	3004	6	1
0	3005	6	1
0	3007	6	1
0	3008	6	1
0	3029	6.05	1
0	3030	6.05	1
0	3095	6.1	1
0	3096	6.1	1
0	3098	6.1	1
0	3099	6.1	1
0	3122	6.15	1
0	3123	6.15	1
0	3140	6.2	1
0	3141	6.2	1
0	3143	6.2	1
0	3144	6.2	1
0	3165	6.25	1
0	3166	6.25	1
0	3183	6.3	1
0	3184	6.3	1
0	3186	6.3	1
0	3187	6.3	1
0	3208	6.35	1
0	3209	6.35	1
0	3226	6.4	1
0	3227	6.4	1
0	3229	6.4	1
0	3230	6.4	1
0	3251	6.45	1
0	3252	6.45	1
0	3269	6.5	1
0	3270	6.5	1
0	3272	6.5	1
0	3273	6.5	1
0	3294	6.55	1
0	3295	6.55	1
0	3312	6.6	1
0	3313	6.6	1
0	3315	6.6	1
0	3316	6.6	1
0	3383	6.65	1
0	3384	6.65	1
0	3401	6.7	1
0	3402	6.7	1
0	3404	6.7	1
0	3405	6.7	1
0	3426	6.75	1
0	3427	6.75	1
0	3444	6.8	1
0	3445	6.8	1
0	3447	6.8	1
0	3448	6.8	1
0	3469	6.85	1
0	3470	6.85	1
0	3487	6.9	1
0	3488	6.9	1
0	3490	6.9	1
0	3491	6.9	1
0	3512	6.95	1
0	3513	6.95	1
0	3532	7	1
0	3533	7	1
0	3535	7	1
0	3536	7	1
0	3557	7.05	1
0	3558	7.05	1
0	3577	7.1	1
0	3578	7.1	1
0	3580	7.1	1
0	3581	7.1	1
0	3604	7.15	1
0	3605	7.15	1
0	3668	7.2	1
0	3669	7.2	1
0	3671	7.2	1
0	3672	7.2	1
0	3693	7.25	1
0	3694	7.25	1
0	3711	7.3	1
0	3712	7.3	1
0	3714	7.3	1
0	3715	7.3	1
0	3736	7.35	1
0	3737	7.35	1
0	3754	7.4	1
0	3755	7.4	1
0	3757	7.4	1
0	3758	7.4	1
0	3779	7.45	1
0	3780	7.45	1
0	3797	7.5	1
0	3798	7.5	1
0	3800	7.5	1
0	3801	7.5	1
0	3822	7.55	1
0	3823	7.55	1
0	3840	7.6	1
0	3841	7.6	1
0	3843	7.6	1
0	3844	7.6	1
0	3865	7.65	1
0	3866	7.65	1
0	3883	7.7	1
0	3884	7.7	1
0	3886	7.7	1
0	3887	7.7	1
0	3954	7.75	1
0	3955	7.75	1
0	3972	7.8	1
0	3973	7.8	1
0	3975	7.8	1
0	3976	7.8	1
0	3997	7.85	1
0	3998	7.85	1
0	4015	7.9	1
0	4016	7.9	1
0	4018	7.9	1
0	4019	7.9	1
0	4040	7.95	1
0	4041	7.95	1
0	4060	8	1
0	4061	8	1
0	4063	8	1
0	4064	8	1
0	4085	8.05	1
0	4086	8.05	1
0	4105	8.1	1
0	4106	8.1	1
0	4108	8.1	1
0	4109	8.1	1
0	4132	8.15	1
0	4133	8.15	1
0	4150	8.2	1
0	4151	8.2	1
0	4153	8.2	1
0	4154	8.2	1
0	4175	8.25	1
0	4176	8.25	1
0	4239	8.3	1
0	4240	8.3	1
0	4242	8.3	1
0	4243	8.3	1
0	4264	8.35	1
0	4265	8.35	1
0	4282	8.4	1
0	4283	8.4	1
0	4285	8.4	1
0	4286	8.4	1
0	4307	8.45	1
0	4308	8.45	1
0	4325	8.5	1
0	4326	8.5	1
0	4328	8.5	1
0	4329	8.5	1
0	4350	8.55	1
0	4351	8.55	1
0	4368	8.6	1
0	4369	8.6	1
0	4371	8.6	1
0	4372	8.6	1
0	4393	8.65	1
0	4394	8.65	1
0	4411	8.7	1
0	4412	8.7	1
0	4414	8.7	1
0	4415	8.7	1
0	4436	8.75	1
0	4437	8.75	1
0	4454	8.8	1
0	4455	8.8	1
0	4457	8.8	1
0	4458	8.8	1
0	4525	8.85	1
0	4526	8.85	1
0	4543	8.9	1
0	4544	8.9	1
0	4546	8.9	1
0	4547	8.9	1
0	4568	8.95	1
0	4569	8.95	1
0	4588	9	1
0	4589	9	1
0	4591	9	1
0	4592	9	1
0	4613	9.05	1
0	4614	9.05	1
0	4633	9.1	1
0	4634	9.1	1
0	4636	9.1	1
0	4637	9.1	1
0	4660	9.15	1
0	4661	9.15	1
0	4678	9.2	1
0	4679	9.2	1
0	4681	9.2	1
0	4682	9.2	1
0	4703	9.25	1
0	4704	9.25	1
0	4721	9.3	1
0	4722	9.3	1
0	4724	9.3	1
0	4725	9.3	1
0	4746	9.35	1
0	4747	9.35	1
0	4810	9.4	1
0	4811	9.4	1
0	4813	9.4	1
0	4814	9.4	1
0	4835	9.45	1
0	4836	9.45	1
0	4853	9.5	1
0	4854	9.5	1
0	4856	9.5	1
0	4857	9.5	1
0	4878	9.55	1
0	4879	9.55	1
0	4896	9.6	1
0	4897	9.6	1
0	4899	9.6	1
0	4900	9.6	1
0	4921	9.65	1
0	4922	9.65	1
0	4939	9.7	1
0	4940	9.7	1
0	4942	9.7	1
0	4943	9.7	1
0	4964	9.75	1
0	4965	9.75	1
0	4982	9.8	1
0	4983	9.8	1
0	4985	9.8	1
0	4986	9.8	1
0	5007	9.85	1
0	5008	9.85	1
0	5025	9.9	1
0	5026	9.9	1
0	5028	9.9	1
0	5029	9.9	1
0	5096	9.95	1
0	5097	9.95	1
0	5116	10	1
0	5117	10	1
0	5119	10	1
0	5120	10	1
0	5141	10.05	1
0	5142	10.05	1
0	5161	10.1	1
0	5162	10.1	1
0	5164	10.1	1
0	5165	10.1	1
0	5188	10.15	1
0	5189	10.15	1
0	5206	10.2	1
0	5207	10.2	1
0	5209	10.2	1
0	5210	10.2	1
0	5231	10.25	1
0	5232	10.25	1
0	5249	10.3	1
0	5250	10.3	1
0	5252	10.3	1
0	5253	10.3	1
0	5274	10.35	1
0	5275	10.35	1
0	5292	10.4	1
0	5293	10.4	1
0	5295	10.4	1
0	5296	10.4	1
0	5317	10.45	1
0	5318	10.45	1
0	5439	10.5	1
0	5440	10.5	1
0	5442	10.5	1
0	5443	10.5	1
0	5518	10.55	1
0	5519	10.55	1
0	5608	10.6	1
0	5609	10.6	1
0	5611	10.6	1
0	5612	10.6	1
0	5669	10.65	1
0	5670	10.65	1
0	5687	10.7	1
0	5688	10.7	1
0	5690	10.7	1
0	5691	10.7	1
0	5712	10.75	1
0	5713	10.75	1
0	5730	10.8	1
0	5731	10.8	1
0	5733	10.8	1
0	5734	10.8	1
0	5755	10.85	1
0	5756	10.85	1
0	5773	10.9	1
0	5774	10.9	1
0	5776	10.9	1
0	5777	10.9	1
0	5798	10.95	1
0	5799	10.95	1
0	5818	11	1
0	5819	11	1
0	5821	11	1
0	5822	11	1
0	5889	11.05	1
0	5890	11.05	1
0	5909	11.1	1
0	5910	11.1	1
0	5912	11.1	1
0	5913	11.1	1
0	5937	11.15	1
0	5938	11.15	1
0	5955	11.2	1
0	5956	11.2	1
0	5958	11.2	1
0	5959	11.2	1
0	5980	11.25	1
0	5981	11.25	1
0	5998	11.3	1
0	5999	11.3	1
0	6001	11.3	1
0	6002	11.3	1
0	6023	11.35	1
0	6024	11.35	1
0	6041	11.4	1
0	6042	11.4	1
0	6044	11.4	1
0	6045	11.4	1
0	6066	11.45	1
0	6067	11.45	1
0	6084	11.5	1
0	6085	11.5	1
0	6087	11.5	1
0	6088	11.5	1
0	6109	11.55	1
0	6110	11.55	1
0	6194	11.6	1
0	6195	11.6	1
0	6197	11.6	1
0	6198	11.6	1
0	6219	11.65	1
0	6220	11.65	1
0	6237	11.7	1
0	6238	11.7	1
0	6240	11.7	1
0	6241	11.7	1
0	6262	11.75	1
0	6263	11.75	1
0	6280	11.8	1
0	6281	11.8	1
0	6283	11.8	1
0	6284	11.8	1
0	6305	11.85	1
0	6306	11.85	1
0	6323	11.9	1
0	6324	11.9	1
0	6326	11.9	1
0	6327	11.9	1
0	6348	11.95	1
0	6349	11.95	1
0	6367	12	1
0	6368	12	1
0	6370	12	1
0	6371	12	1
0	6392	12.05	1
0	6393	12.05	1
0	6412	12.1	1
0	6413	12.1	1
0	6415	12.1	1
0	6416	12.1	1
0	6507	12.15	1
0	6508	12.15	1
0	6525	12.2	1
0	6526	12.2	1
0	6528	12.2	1
0	6529	12.2	1
0	6550	12.25	1
0	6551	12.25	1
0	6568	12.3	1
0	6569	12.3	1
0	6571	12.3	1
0	6572	12.3	1
0	6593	12.35	1
0	6594	12.35	1
0	6611	12.4	1
0	6612	12.4	1
0	6614	12.4	1
0	6615	12.4	1
0	6636	12.45	1
0	6637	12.45	1
0	6654	12.5	1
0	6655	12.5	1
0	6657	12.5	1
0	6658	12.5	1
0	6679	12.55	1
0	6680	12.55	1
0	6697	12.6	1
0	6698	12.6	1
0	6700	12.6	1
0	6701	12.6	1
0	6722	12.65	1
0	6723	12.65	1
0	6786	12.7	1
0	6787	12.7	1
0	6789	12.7	1
0	6790	12.7	1
0	6811	12.75	1
0	6812	12.75	1
0	6829	12.8	1
0	6830	12.8	1
0	6832	12.8	1
0	6833	12.8	1
0	6854	12.85	1
0	6855	12.85	1
0	6872	12.9	1
0	6873	12.9	1
0	6875	12.9	1
0	6876	12.9	1
0	6897	12.95	1
0	6898	12.95	1
0	6915	13	1
0	6916	13	1
0	6918	13	1
0	6919	13	1
0	6940	13.05	1
0	6941	13.05	1
0	6960	13.1	1
0	6961	13.1	1
0	6963	13.1	1
0	6964	13.1	1
0	6988	13.15	1
0	6989	13.15	1
0	7006	13.2	1
0	7007	13.2	1
0	7009	13.2	1
0	7010	13.2	1
0	7098	13.25	1
0	7099	13.25	1
0	7116	13.3	1
0	7117	13.3	1
0	7119	13.3	1
0	7120	13.3	1
0	7141	13.35	1
0	7142	13.35	1
0	7159	13.4	1
0	7160	13.4	1
0	7162	13.4	1
0	7163	13.4	1
0	7184	13.45	1
0	7185	13.45	1
0	7202	13.5	1
0	7203	13.5	1
0	7205	13.5	1
0	7206	13.5	1
0	7227	13.55	1
0	7228	13.55	1
0	7245	13.6	1
0	7246	13.6	1
0	7248	13.6	1
0	7249	13.6	1
0	7270	13.65	1
0	7271	13.65	1
0	7288	13.7	1
0	7289	13.7	1
0	7291	13.7	1
0	7292	13.7	1
0	7313	13.75	1
0	7314	13.75	1
0	7377	13.8	1
0	7378	13.8	1
0	7380	13.8	1
0	7381	13.8	1
0	7402	13.85	1
0	7403	13.85	1
0	7420	13.9	1
0	7421	13.9	1
0	7423	13.9	1
0	7424	13.9	1
0	7445	13.95	1
0	7446	13.95	1
0	7463	14	1
0	7464	14	1
0	7466	14	1
0	7467	14	1
0	7488	14.05	1
0	7489	14.05	1
0	7508	14.1	1
0	7509	14.1	1
0	7511	14.1	1
0	7512	14.1	1
0	7536	14.15	1
0	7537	14.15	1
0	7554	14.2	1
0	7555	14.2	1
0	7557	14.2	1
0	7558	14.2	1
0	7579	14.25	1
0	7580	14.25	1
0	7597	14.3	1
0	7598	14.3	1
0	7600	14.3	1
0	7601	14.3	1
0	7689	14.35	1
0	7690	14.35	1
0	7707	14.4	1
0	7708	14.4	1
0	7710	14.4	1
0	7711	14.4	1
0	7732	14.45	1
0	7733	14.45	1
0	7750	14.5	1
0	7751	14.5	1
0	7753	14.5	1
0	7754	14.5	1
0	7775	14.55	1
0	7776	14.55	1
0	7793	14.6	1
0	7794	14.6	1
0	7796	14.6	1
0	7797	14.6	1
0	7818	14.65	1
0	7819	14.65	1
0	7836	14.7	1
0	7837	14.7	1
0	7839	14.7	1
0	7840	14.7	1
0	7861	14.75	1
0	7862	14.75	1
0	7879	14.8	1
0	7880	14.8	1
0	7882	14.8	1
0	7883	14.8	1
0	7904	14.85	1
0	7905	14.85	1
0	7968	14.9	1
0	7969	14.9	1
0	7971	14.9	1
0	7972	14.9	1
0	7993	14.95	1
0	7994	14.95	1
0	8011	15	1
0	8012	15	1
0	8014	15	1
0	8015	15	1
0	8036	15.05	1
0	8037	15.05	1
0	8056	15.1	1
0	8057	15.1	1
0	8059	15.1	1
0	8060	15.1	1
0	8084	15.15	1
0	8085	15.15	1
0	8102	15.2	1
0	8103	15.2	1
0	8105	15.2	1
0	8106	15.2	1
0	8127	15.25	1
0	8128	15.25	1
0	8145	15.3	1
0	8146	15.3	1
0	8148	15.3	1
0	8149	15.3	1
0	8170	15.35	1
0	8171	15.35	1
0	8188	15.4	1
0	8189	15.4	1
0	8191	15.4	1
0	8192	15.4	1
0	8280	15.45	1
0	8281	15.45	1
0	8298	15.5	1
0	8299	15.5	1
0	8301	15.5	1
0	8302	15.5	1
0	8323	15.55	1
0	8324	15.55	1
0	8341	15.6	1
0	8342	15.6	1
0	8344	15.6	1
0	8345	15.6	1
0	8366	15.65	1
0	8367	15.65	1
0	8384	15.7	1
0	8385	15.7	1
0	8387	15.7	1
0	8388	15.7	1
0	8409	15.75	1
0	8410	15.75	1
0	8427	15.8	1
0	8428	15.8	1
0	8430	15.8	1
0	8431	15.8	1
0	8452	15.85	1
0	8453	15.85	1
0	8470	15.9	1
0	8471	15.9	1
0	8473	15.9	1
0	8474	15.9	1
0	8495	15.95	1
0	8496	15.95	1
0	8560	16	1
0	8561	16	1
0	8563	16	1
0	8564	16	1
0	8585	16.05	1
0	8586	16.05	1
0	8605	16.1	1
0	8606	16.1	1
0	8608	16.1	1
0	8609	16.1	1
0	8633	16.15	1
0	8634	16.15	1
0	8651	16.2	1
0	8652	16.2	1
0	8654	16.2	1
0	8655	16.2	1
0	8676	16.25	1
0	8677	16.25	1
0	8694	16.3	1
0	8695	16.3	1
0	8697	16.3	1
0	8698	16.3	1
0	8719	16.35	1
0	8720	16.35	1
0	8737	16.4	1
0	8738	16.4	1
0	8740	16.4	1
0	8741	16.4	1
0	8762	16.45	1
0	8763	16.45	1
0	8780	16.5	1
0	8781	16.5	1
0	8783	16.5	1
0	8784	16.5	1
1	25	0.1	nan
1	27	0.1	nan
1	459	1.1	nan
1	460	1.1	nan
1	985	2.1	nan
1	986	2.1	nan
1	1511	3.1	nan
1	1512	3.1	nan
1	2037	4.1	nan
1	2038	4.1	nan
1	2565	5.1	nan
1	2566	5.1	nan
1	3093	6.1	nan
1	3094	6.1	nan
1	3575	7.1	nan
1	3576	7.1	nan
1	4103	8.1	nan
1	4104	8.1	nan
1	4631	9.1	nan
1	4632	9.1	nan
1	5159	10.1	nan
1	5160	10.1	nan
1	5907	11.1	nan
1	5908	11.1	nan
1	6410	12.1	nan
1	6411	12.1	nan
1	6958	13.1	nan
1	6959	13.1	nan
1	7506	14.1	nan
1	7507	14.1	nan
1	8054	15.1	nan
1	8055	15.1	nan
1	8603	16.1	nan
1	8604	16.1	nan
2	5409	10.483429964638	141
2	5427	10.497269976305	282
2	5470	10.511109987979	423
2	5488	10.524949999662	564
2	5506	10.538790011352	705
2	5542	10.552630023051	846
2	5560	10.566470034757	987
2	5578	10.580310046472	1128
2	5596	10.594150058194	1269
2	5639	10.607990069924	1410
2	5657	10.621830081662	1551
2	6181	11.583432253194	1692
2	6494	12.133433443579	1833
2	7085	13.233435918636	1974
2	7676	14.333438522347	2115
2	8267	15.433441258466	2256
2	8859	16.533444131004	2397
3	5409	10.483429964638	141
3	5427	10.497269976305	282
3	5470	10.511109987979	423
3	5488	10.524949999662	564
3	5506	10.538790011352	705
3	5542	10.552630023051	846
3	5560	10.566470034757	987
3	5578	10.580310046472	1128
3	5596	10.594150058194	1269
3	5639	10.607990069924	1410
3	5657	10.621830081662	1551
3	6181	11.583432253194	1692
3	6494	12.133433443579	1833
3	7085	13.233435918636	1974
3	7676	14.333438522347	2115
3	8267	15.433441258466	2256
3	8859	16.533444131004	2397

