version 2
run A-0-20190909-00:19:14-6127
attr configname A
attr datetime 20190909-00:19:14
attr experiment A
attr inifile SimV2.ini
attr iterationvars $0=2
attr iterationvarsf 2-
attr measurement $0=2
attr network NetworkTormV2
attr processid 6127
attr repetition 0
attr replication #0
attr resultdir results
attr runnumber 0
attr seedset 0
param **.mobility.traceFile "\"paths/A.movements\""
param **.numNodes 2
param **.wirelessIfc.wirelessRange 25m
param **.bluetoothIfc.wirelessRange 25m
param **.numNodes 2
param **.application.usedRNG 1
param **.application.dataGenerationInterval 1ms
param **.application.dataSizeInBytes 10
param **.application.ttl 999999s
param **application.destinationAddr "\"Wf:00:00:00:00:09\""
param **application.destinationBTAddr "\"Bt:00:00:00:00:09\""
param **application.nodesThatGen true
param **application.nodesGenMsg "\"0\""
param **application.startMultipleMsg true
param **application.numMultipleMsg 100
param **application.hopsListSize 50
param **.routingLayer "\"RoutingLayer\""
param **.routing.maximumCacheSize 5000byte
param **.routing.maximumHopCount 25
param **.routing.useTTL false
param **.neighboring.antiEntropyInterval 200ms
param **.neighboring.maximumRandomBackoffDuration 1s
param **.neighboring.delayPerDataMsg 0.1
param **neighboring.usedRNG 2
param **.neighboring.GWAddr "\"02:00:00:00:00:09\""
param **.neighboring.sendWifiFirst true
param **.neighboring.maxLengthGraph 20
param **.wirelessIfc.wirelessRange 15m
param **.wirelessIfc.neighbourScanInterval 50ms
param **.wirelessIfc.bandwidthBitRate 100000bps
param **.wirelessIfc.wirelessHeaderSize 32byte
param **.wirelessIfc.minSSI -90
param **.bluetoothIfc.wirelessRange 15m
param **.bluetoothIfc.neighbourScanInterval 100ms
param **.bluetoothIfc.bandwidthBitRate 100000bps
param **.bluetoothIfc.wirelessHeaderSize 16byte
param **.bluetoothIfc.minSSI -90
param **.mobilityType "\"BonnMotionMobility\""
param **.mobility.traceFile "\"paths/Moves2.movements\""
param **.mobility.nodeId -1

vector 0 NetworkTormV2 neighbourhoodSize:vector ETV
attr source neighbourhoodSize
vector 1 NetworkTormV2 deliveryRatio:vector ETV
attr source sum(totalDataBytesReceived)/sum(totalDataBytesReceivableByAllNodes)
0	7	0.05	1
0	8	0.05	1
0	14	0.1	1
0	15	0.1	1
0	16	0.1	1
0	17	0.1	1
0	125	0.15	1
0	126	0.15	1
0	231	0.2	1
0	232	0.2	1
0	233	0.2	1
0	234	0.2	1
0	243	0.25	1
0	244	0.25	1
0	249	0.3	1
0	250	0.3	1
0	251	0.3	1
0	252	0.3	1
0	261	0.35	1
0	262	0.35	1
0	267	0.4	1
0	268	0.4	1
0	269	0.4	1
0	270	0.4	1
0	279	0.45	1
0	280	0.45	1
0	285	0.5	1
0	286	0.5	1
0	287	0.5	1
0	288	0.5	1
0	297	0.55	1
0	298	0.55	1
0	303	0.6	1
0	304	0.6	1
0	305	0.6	1
0	306	0.6	1
0	315	0.65	1
0	316	0.65	1
0	321	0.7	1
0	322	0.7	1
0	323	0.7	1
0	324	0.7	1
0	333	0.75	1
0	334	0.75	1
0	339	0.8	1
0	340	0.8	1
0	341	0.8	1
0	342	0.8	1
0	351	0.85	1
0	352	0.85	1
0	357	0.9	1
0	358	0.9	1
0	359	0.9	1
0	360	0.9	1
0	369	0.95	1
0	370	0.95	1
0	375	1	1
0	376	1	1
0	377	1	1
0	378	1	1
0	387	1.05	1
0	388	1.05	1
0	393	1.1	1
0	394	1.1	1
0	395	1.1	1
0	396	1.1	1
0	431	1.15	1
0	432	1.15	1
0	437	1.2	1
0	438	1.2	1
0	439	1.2	1
0	440	1.2	1
0	449	1.25	1
0	450	1.25	1
0	455	1.3	1
0	456	1.3	1
0	457	1.3	1
0	458	1.3	1
0	467	1.35	1
0	468	1.35	1
0	499	1.4	1
0	500	1.4	1
0	501	1.4	1
0	502	1.4	1
0	511	1.45	1
0	512	1.45	1
0	517	1.5	1
0	518	1.5	1
0	519	1.5	1
0	520	1.5	1
0	529	1.55	1
0	530	1.55	1
0	561	1.6	1
0	562	1.6	1
0	563	1.6	1
0	564	1.6	1
0	573	1.65	1
0	574	1.65	1
0	579	1.7	1
0	580	1.7	1
0	581	1.7	1
0	582	1.7	1
0	591	1.75	1
0	592	1.75	1
0	597	1.8	1
0	598	1.8	1
0	599	1.8	1
0	600	1.8	1
0	635	1.85	1
0	636	1.85	1
0	641	1.9	1
0	642	1.9	1
0	643	1.9	1
0	644	1.9	1
0	653	1.95	1
0	654	1.95	1
0	659	2	1
0	660	2	1
0	661	2	1
0	662	2	1
0	671	2.05	1
0	672	2.05	1
0	703	2.1	1
0	704	2.1	1
0	705	2.1	1
0	706	2.1	1
0	715	2.15	1
0	716	2.15	1
0	721	2.2	1
0	722	2.2	1
0	723	2.2	1
0	724	2.2	1
0	733	2.25	1
0	734	2.25	1
0	739	2.3	1
0	740	2.3	1
0	741	2.3	1
0	742	2.3	1
0	777	2.35	1
0	778	2.35	1
0	783	2.4	1
0	784	2.4	1
0	785	2.4	1
0	786	2.4	1
0	795	2.45	1
0	796	2.45	1
0	801	2.5	1
0	802	2.5	1
0	803	2.5	1
0	804	2.5	1
0	813	2.55	1
0	814	2.55	1
0	845	2.6	1
0	846	2.6	1
0	847	2.6	1
0	848	2.6	1
0	857	2.65	1
0	858	2.65	1
0	863	2.7	1
0	864	2.7	1
0	865	2.7	1
0	866	2.7	1
0	875	2.75	1
0	876	2.75	1
0	881	2.8	1
0	882	2.8	1
0	883	2.8	1
0	884	2.8	1
0	919	2.85	1
0	920	2.85	1
0	925	2.9	1
0	926	2.9	1
0	927	2.9	1
0	928	2.9	1
0	937	2.95	1
0	938	2.95	1
0	943	3	1
0	944	3	1
0	945	3	1
0	946	3	1
0	955	3.05	1
0	956	3.05	1
0	987	3.1	1
0	988	3.1	1
0	989	3.1	1
0	990	3.1	1
0	999	3.15	1
0	1000	3.15	1
0	1005	3.2	1
0	1006	3.2	1
0	1007	3.2	1
0	1008	3.2	1
0	1017	3.25	1
0	1018	3.25	1
0	1023	3.3	1
0	1024	3.3	1
0	1025	3.3	1
0	1026	3.3	1
0	1061	3.35	1
0	1062	3.35	1
0	1067	3.4	1
0	1068	3.4	1
0	1069	3.4	1
0	1070	3.4	1
0	1079	3.45	1
0	1080	3.45	1
0	1085	3.5	1
0	1086	3.5	1
0	1087	3.5	1
0	1088	3.5	1
0	1097	3.55	1
0	1098	3.55	1
0	1129	3.6	1
0	1130	3.6	1
0	1131	3.6	1
0	1132	3.6	1
0	1141	3.65	1
0	1142	3.65	1
0	1147	3.7	1
0	1148	3.7	1
0	1149	3.7	1
0	1150	3.7	1
0	1159	3.75	1
0	1160	3.75	1
0	1165	3.8	1
0	1166	3.8	1
0	1167	3.8	1
0	1168	3.8	1
0	1203	3.85	1
0	1204	3.85	1
0	1209	3.9	1
0	1210	3.9	1
0	1211	3.9	1
0	1212	3.9	1
0	1221	3.95	1
0	1222	3.95	1
0	1227	4	1
0	1228	4	1
0	1229	4	1
0	1230	4	1
0	1239	4.05	1
0	1240	4.05	1
0	1271	4.1	1
0	1272	4.1	1
0	1273	4.1	1
0	1274	4.1	1
0	1283	4.15	1
0	1284	4.15	1
0	1289	4.2	1
0	1290	4.2	1
0	1291	4.2	1
0	1292	4.2	1
0	1301	4.25	1
0	1302	4.25	1
0	1307	4.3	1
0	1308	4.3	1
0	1309	4.3	1
0	1310	4.3	1
0	1345	4.35	1
0	1346	4.35	1
0	1351	4.4	1
0	1352	4.4	1
0	1353	4.4	1
0	1354	4.4	1
0	1363	4.45	1
0	1364	4.45	1
0	1369	4.5	1
0	1370	4.5	1
0	1371	4.5	1
0	1372	4.5	1
0	1381	4.55	1
0	1382	4.55	1
0	1413	4.6	1
0	1414	4.6	1
0	1415	4.6	1
0	1416	4.6	1
0	1425	4.65	1
0	1426	4.65	1
0	1431	4.7	1
0	1432	4.7	1
0	1433	4.7	1
0	1434	4.7	1
0	1443	4.75	1
0	1444	4.75	1
0	1449	4.8	1
0	1450	4.8	1
0	1451	4.8	1
0	1452	4.8	1
0	1487	4.85	1
0	1488	4.85	1
0	1493	4.9	1
0	1494	4.9	1
0	1495	4.9	1
0	1496	4.9	1
0	1505	4.95	1
0	1506	4.95	1
0	1511	5	1
0	1512	5	1
0	1513	5	1
0	1514	5	1
0	1523	5.05	1
0	1524	5.05	1
0	1555	5.1	1
0	1556	5.1	1
0	1557	5.1	1
0	1558	5.1	1
0	1567	5.15	1
0	1568	5.15	1
0	1573	5.2	1
0	1574	5.2	1
0	1575	5.2	1
0	1576	5.2	1
0	1585	5.25	1
0	1586	5.25	1
0	1591	5.3	1
0	1592	5.3	1
0	1593	5.3	1
0	1594	5.3	1
0	1629	5.35	1
0	1630	5.35	1
0	1635	5.4	1
0	1636	5.4	1
0	1637	5.4	1
0	1638	5.4	1
0	1647	5.45	1
0	1648	5.45	1
0	1653	5.5	1
0	1654	5.5	1
0	1655	5.5	1
0	1656	5.5	1
0	1665	5.55	1
0	1666	5.55	1
0	1697	5.6	1
0	1698	5.6	1
0	1699	5.6	1
0	1700	5.6	1
0	1709	5.65	1
0	1710	5.65	1
0	1715	5.7	1
0	1716	5.7	1
0	1717	5.7	1
0	1718	5.7	1
0	1727	5.75	1
0	1728	5.75	1
0	1733	5.8	1
0	1734	5.8	1
0	1735	5.8	1
0	1736	5.8	1
0	1771	5.85	1
0	1772	5.85	1
0	1777	5.9	1
0	1778	5.9	1
0	1779	5.9	1
0	1780	5.9	1
0	1789	5.95	1
0	1790	5.95	1
0	1795	6	1
0	1796	6	1
0	1797	6	1
0	1798	6	1
0	1807	6.05	1
0	1808	6.05	1
0	1839	6.1	1
0	1840	6.1	1
0	1841	6.1	1
0	1842	6.1	1
0	1851	6.15	1
0	1852	6.15	1
0	1857	6.2	1
0	1858	6.2	1
0	1859	6.2	1
0	1860	6.2	1
0	1869	6.25	1
0	1870	6.25	1
0	1875	6.3	1
0	1876	6.3	1
0	1877	6.3	1
0	1878	6.3	1
0	1913	6.35	1
0	1914	6.35	1
0	1919	6.4	1
0	1920	6.4	1
0	1921	6.4	1
0	1922	6.4	1
0	1931	6.45	1
0	1932	6.45	1
0	1937	6.5	1
0	1938	6.5	1
0	1939	6.5	1
0	1940	6.5	1
0	1949	6.55	1
0	1950	6.55	1
0	1981	6.6	1
0	1982	6.6	1
0	1983	6.6	1
0	1984	6.6	1
0	1993	6.65	1
0	1994	6.65	1
0	1999	6.7	1
0	2000	6.7	1
0	2001	6.7	1
0	2002	6.7	1
0	2011	6.75	1
0	2012	6.75	1
0	2017	6.8	1
0	2018	6.8	1
0	2019	6.8	1
0	2020	6.8	1
0	2055	6.85	1
0	2056	6.85	1
0	2061	6.9	1
0	2062	6.9	1
0	2063	6.9	1
0	2064	6.9	1
0	2073	6.95	1
0	2074	6.95	1
0	2079	7	1
0	2080	7	1
0	2081	7	1
0	2082	7	1
0	2091	7.05	1
0	2092	7.05	1
0	2123	7.1	1
0	2124	7.1	1
0	2125	7.1	1
0	2126	7.1	1
0	2135	7.15	1
0	2136	7.15	1
0	2141	7.2	1
0	2142	7.2	1
0	2143	7.2	1
0	2144	7.2	1
0	2153	7.25	1
0	2154	7.25	1
0	2159	7.3	1
0	2160	7.3	1
0	2161	7.3	1
0	2162	7.3	1
0	2197	7.35	1
0	2198	7.35	1
0	2203	7.4	1
0	2204	7.4	1
0	2205	7.4	1
0	2206	7.4	1
0	2215	7.45	1
0	2216	7.45	1
0	2221	7.5	1
0	2222	7.5	1
0	2223	7.5	1
0	2224	7.5	1
0	2233	7.55	1
0	2234	7.55	1
0	2265	7.6	1
0	2266	7.6	1
0	2267	7.6	1
0	2268	7.6	1
0	2277	7.65	1
0	2278	7.65	1
0	2283	7.7	1
0	2284	7.7	1
0	2285	7.7	1
0	2286	7.7	1
0	2295	7.75	1
0	2296	7.75	1
0	2301	7.8	1
0	2302	7.8	1
0	2303	7.8	1
0	2304	7.8	1
0	2339	7.85	1
0	2340	7.85	1
0	2345	7.9	1
0	2346	7.9	1
0	2347	7.9	1
0	2348	7.9	1
0	2357	7.95	1
0	2358	7.95	1
0	2363	8	1
0	2364	8	1
0	2365	8	1
0	2366	8	1
0	2375	8.05	1
0	2376	8.05	1
0	2407	8.1	1
0	2408	8.1	1
0	2409	8.1	1
0	2410	8.1	1
0	2419	8.15	1
0	2420	8.15	1
0	2425	8.2	1
0	2426	8.2	1
0	2427	8.2	1
0	2428	8.2	1
0	2437	8.25	1
0	2438	8.25	1
0	2443	8.3	1
0	2444	8.3	1
0	2445	8.3	1
0	2446	8.3	1
0	2481	8.35	1
0	2482	8.35	1
0	2487	8.4	1
0	2488	8.4	1
0	2489	8.4	1
0	2490	8.4	1
0	2499	8.45	1
0	2500	8.45	1
0	2505	8.5	1
0	2506	8.5	1
0	2507	8.5	1
0	2508	8.5	1
0	2517	8.55	1
0	2518	8.55	1
0	2549	8.6	1
0	2550	8.6	1
0	2551	8.6	1
0	2552	8.6	1
0	2561	8.65	1
0	2562	8.65	1
0	2567	8.7	1
0	2568	8.7	1
0	2569	8.7	1
0	2570	8.7	1
0	2579	8.75	1
0	2580	8.75	1
0	2585	8.8	1
0	2586	8.8	1
0	2587	8.8	1
0	2588	8.8	1
0	2623	8.85	1
0	2624	8.85	1
0	2629	8.9	1
0	2630	8.9	1
0	2631	8.9	1
0	2632	8.9	1
0	2641	8.95	1
0	2642	8.95	1
0	2647	9	1
0	2648	9	1
0	2649	9	1
0	2650	9	1
0	2659	9.05	1
0	2660	9.05	1
0	2691	9.1	1
0	2692	9.1	1
0	2693	9.1	1
0	2694	9.1	1
0	2703	9.15	1
0	2704	9.15	1
0	2709	9.2	1
0	2710	9.2	1
0	2711	9.2	1
0	2712	9.2	1
0	2721	9.25	1
0	2722	9.25	1
0	2753	9.3	1
0	2754	9.3	1
0	2755	9.3	1
0	2756	9.3	1
0	2765	9.35	1
0	2766	9.35	1
0	2771	9.4	1
0	2772	9.4	1
0	2773	9.4	1
0	2774	9.4	1
0	2783	9.45	1
0	2784	9.45	1
0	2789	9.5	1
0	2790	9.5	1
0	2791	9.5	1
0	2792	9.5	1
0	2827	9.55	1
0	2828	9.55	1
0	2833	9.6	1
0	2834	9.6	1
0	2835	9.6	1
0	2836	9.6	1
0	2845	9.65	1
0	2846	9.65	1
0	2851	9.7	1
0	2852	9.7	1
0	2853	9.7	1
0	2854	9.7	1
0	2863	9.75	1
0	2864	9.75	1
0	2895	9.8	1
0	2896	9.8	1
0	2897	9.8	1
0	2898	9.8	1
0	2907	9.85	1
0	2908	9.85	1
0	2913	9.9	1
0	2914	9.9	1
0	2915	9.9	1
0	2916	9.9	1
0	2925	9.95	1
0	2926	9.95	1
0	2931	10	1
0	2932	10	1
0	2933	10	1
0	2934	10	1
1	13	0.1	-nan
1	27	0.101	-nan
1	29	0.102	-nan
1	31	0.103	-nan
1	33	0.104	-nan
1	35	0.105	-nan
1	37	0.106	-nan
1	39	0.107	-nan
1	41	0.108	-nan
1	43	0.109	-nan
1	45	0.11	-nan
1	47	0.111	-nan
1	49	0.112	-nan
1	51	0.113	-nan
1	53	0.114	-nan
1	55	0.115	-nan
1	57	0.116	-nan
1	59	0.117	-nan
1	61	0.118	-nan
1	63	0.119	-nan
1	65	0.12	-nan
1	67	0.121	-nan
1	69	0.122	-nan
1	71	0.123	-nan
1	73	0.124	-nan
1	75	0.125	-nan
1	77	0.126	-nan
1	79	0.127	-nan
1	81	0.128	-nan
1	83	0.129	-nan
1	85	0.13	-nan
1	87	0.131	-nan
1	89	0.132	-nan
1	91	0.133	-nan
1	93	0.134	-nan
1	95	0.135	-nan
1	97	0.136	-nan
1	99	0.137	-nan
1	101	0.138	-nan
1	103	0.139	-nan
1	105	0.14	-nan
1	107	0.141	-nan
1	109	0.142	-nan
1	111	0.143	-nan
1	113	0.144	-nan
1	115	0.145	-nan
1	117	0.146	-nan
1	119	0.147	-nan
1	121	0.148	-nan
1	123	0.149	-nan
1	127	0.15	-nan
1	133	0.151	-nan
1	135	0.152	-nan
1	137	0.153	-nan
1	139	0.154	-nan
1	141	0.155	-nan
1	143	0.156	-nan
1	145	0.157	-nan
1	147	0.158	-nan
1	149	0.159	-nan
1	151	0.16	-nan
1	153	0.161	-nan
1	155	0.162	-nan
1	157	0.163	-nan
1	159	0.164	-nan
1	161	0.165	-nan
1	163	0.166	-nan
1	165	0.167	-nan
1	167	0.168	-nan
1	169	0.169	-nan
1	171	0.17	-nan
1	173	0.171	-nan
1	175	0.172	-nan
1	177	0.173	-nan
1	179	0.174	-nan
1	181	0.175	-nan
1	183	0.176	-nan
1	185	0.177	-nan
1	187	0.178	-nan
1	189	0.179	-nan
1	191	0.18	-nan
1	193	0.181	-nan
1	195	0.182	-nan
1	197	0.183	-nan
1	199	0.184	-nan
1	201	0.185	-nan
1	203	0.186	-nan
1	205	0.187	-nan
1	207	0.188	-nan
1	209	0.189	-nan
1	211	0.19	-nan
1	213	0.191	-nan
1	215	0.192	-nan
1	217	0.193	-nan
1	219	0.194	-nan
1	221	0.195	-nan
1	223	0.196	-nan
1	225	0.197	-nan
1	227	0.198	-nan
1	229	0.199	-nan

