version 2
run A-1-20190909-17:32:16-901
attr configname A
attr datetime 20190909-17:32:16
attr experiment A
attr inifile SimV2.ini
attr iterationvars $0=3
attr iterationvarsf 3-
attr measurement $0=3
attr network NetworkTormV2
attr processid 901
attr repetition 0
attr replication #0
attr resultdir results
attr runnumber 1
attr seedset 1
param **.mobility.traceFile "\"paths/A.movements\""
param **.numNodes 3
param **.wirelessIfc.wirelessRange 25m
param **.bluetoothIfc.wirelessRange 25m
param **.numNodes 2
param **.application.usedRNG 1
param **.application.dataGenerationInterval 1ms
param **.application.dataSizeInBytes 10
param **.application.ttl 999999s
param **application.destinationAddr "\"Wf:00:00:00:00:02\""
param **application.destinationBTAddr "\"Bt:00:00:00:00:02\""
param **application.nodesThatGen true
param **application.nodesGenMsg "\"0\""
param **application.startMultipleMsg true
param **application.numMultipleMsg 100
param **application.hopsListSize 50
param **.routingLayer "\"RoutingLayer\""
param **.routing.maximumCacheSize 5000byte
param **.routing.maximumHopCount 25
param **.routing.useTTL false
param **.neighboring.antiEntropyInterval 500ms
param **.neighboring.maximumRandomBackoffDuration 1s
param **.neighboring.delayPerDataMsg 0.1
param **neighboring.usedRNG 2
param **.neighboring.GWAddr "\"02:00:00:00:00:09\""
param **.neighboring.sendWifiFirst true
param **.neighboring.maxLengthGraph 20
param **.wirelessIfc.wirelessRange 15m
param **.wirelessIfc.neighbourScanInterval 50ms
param **.wirelessIfc.bandwidthBitRate 100000bps
param **.wirelessIfc.wirelessHeaderSize 32byte
param **.wirelessIfc.minSSI -90
param **.bluetoothIfc.wirelessRange 15m
param **.bluetoothIfc.neighbourScanInterval 100ms
param **.bluetoothIfc.bandwidthBitRate 100000bps
param **.bluetoothIfc.wirelessHeaderSize 16byte
param **.bluetoothIfc.minSSI -90
param **.mobilityType "\"BonnMotionMobility\""
param **.mobility.traceFile "\"paths/Moves2.movements\""
param **.mobility.nodeId -1

vector 0 NetworkTormV2 neighbourhoodSize:vector ETV
attr source neighbourhoodSize
vector 1 NetworkTormV2 deliveryRatio:vector ETV
attr source sum(totalDataBytesReceived)/sum(totalDataBytesReceivableByAllNodes)
vector 2 NetworkTormV2 dataBytesReceivedSum:vector ETV
attr source sum(dataBytesReceived)
vector 3 NetworkTormV2 totalBytesReceivedSum:vector ETV
attr source sum(totalBytesReceived)
0	10	0.05	1
0	11	0.05	2
0	12	0.05	1
0	20	0.1	1
0	21	0.1	2
0	22	0.1	1
0	23	0.1	1
0	24	0.1	2
0	25	0.1	1
0	137	0.15	1
0	138	0.15	2
0	139	0.15	1
0	246	0.2	1
0	247	0.2	2
0	248	0.2	1
0	249	0.2	1
0	250	0.2	2
0	251	0.2	1
0	264	0.25	1
0	265	0.25	2
0	266	0.25	1
0	273	0.3	1
0	274	0.3	2
0	275	0.3	1
0	276	0.3	1
0	277	0.3	2
0	278	0.3	1
0	291	0.35	1
0	292	0.35	2
0	293	0.35	1
0	300	0.4	1
0	301	0.4	2
0	302	0.4	1
0	303	0.4	1
0	304	0.4	2
0	305	0.4	1
0	318	0.45	1
0	319	0.45	2
0	320	0.45	1
0	327	0.5	1
0	328	0.5	2
0	329	0.5	1
0	330	0.5	1
0	331	0.5	2
0	332	0.5	1
0	345	0.55	1
0	346	0.55	2
0	347	0.55	1
0	354	0.6	1
0	355	0.6	2
0	356	0.6	1
0	357	0.6	1
0	358	0.6	2
0	359	0.6	1
0	372	0.65	1
0	373	0.65	2
0	374	0.65	1
0	381	0.7	1
0	382	0.7	2
0	383	0.7	1
0	384	0.7	1
0	385	0.7	2
0	386	0.7	1
0	399	0.75	1
0	400	0.75	2
0	401	0.75	1
0	408	0.8	1
0	409	0.8	2
0	410	0.8	1
0	411	0.8	1
0	412	0.8	2
0	413	0.8	1
0	426	0.85	1
0	427	0.85	2
0	428	0.85	1
0	435	0.9	1
0	436	0.9	2
0	437	0.9	1
0	438	0.9	1
0	439	0.9	2
0	440	0.9	1
0	453	0.95	1
0	454	0.95	2
0	455	0.95	1
0	462	1	1
0	463	1	2
0	464	1	1
0	465	1	1
0	466	1	2
0	467	1	1
0	480	1.05	1
0	481	1.05	2
0	482	1.05	1
0	489	1.1	1
0	490	1.1	2
0	491	1.1	1
0	492	1.1	1
0	493	1.1	2
0	494	1.1	1
0	559	1.15	1
0	560	1.15	2
0	561	1.15	1
0	568	1.2	1
0	569	1.2	2
0	570	1.2	1
0	571	1.2	1
0	572	1.2	2
0	573	1.2	1
0	586	1.25	1
0	587	1.25	2
0	588	1.25	1
0	595	1.3	1
0	596	1.3	2
0	597	1.3	1
0	598	1.3	1
0	599	1.3	2
0	600	1.3	1
0	613	1.35	1
0	614	1.35	2
0	615	1.35	1
0	622	1.4	1
0	623	1.4	2
0	624	1.4	1
0	625	1.4	1
0	626	1.4	2
0	627	1.4	1
0	640	1.45	1
0	641	1.45	2
0	642	1.45	1
0	649	1.5	1
0	650	1.5	2
0	651	1.5	1
0	652	1.5	1
0	653	1.5	2
0	654	1.5	1
0	667	1.55	1
0	668	1.55	2
0	669	1.55	1
0	676	1.6	1
0	677	1.6	2
0	678	1.6	1
0	679	1.6	1
0	680	1.6	2
0	681	1.6	1
0	694	1.65	1
0	695	1.65	2
0	696	1.65	1
0	1015	1.7	1
0	1016	1.7	2
0	1017	1.7	1
0	1018	1.7	1
0	1019	1.7	2
0	1020	1.7	1
0	1123	1.75	1
0	1124	1.75	2
0	1125	1.75	1
0	1228	1.8	1
0	1229	1.8	2
0	1230	1.8	1
0	1231	1.8	1
0	1232	1.8	2
0	1233	1.8	1
0	1336	1.85	1
0	1337	1.85	2
0	1338	1.85	1
0	1435	1.9	1
0	1436	1.9	2
0	1437	1.9	1
0	1438	1.9	1
0	1439	1.9	2
0	1440	1.9	1
0	1547	1.95	1
0	1548	1.95	2
0	1549	1.95	1
0	1646	2	1
0	1647	2	2
0	1648	2	1
0	1649	2	1
0	1650	2	2
0	1651	2	1
0	1760	2.05	1
0	1761	2.05	2
0	1762	2.05	1
0	1859	2.1	1
0	1860	2.1	2
0	1861	2.1	1
0	1862	2.1	1
0	1863	2.1	2
0	1864	2.1	1
0	1967	2.15	1
0	1968	2.15	2
0	1969	2.15	1
0	2070	2.2	1
0	2071	2.2	2
0	2072	2.2	1
0	2073	2.2	1
0	2074	2.2	2
0	2075	2.2	1
0	2400	2.25	1
0	2401	2.25	2
0	2402	2.25	1
0	2505	2.3	1
0	2506	2.3	2
0	2507	2.3	1
0	2508	2.3	1
0	2509	2.3	2
0	2510	2.3	1
0	2613	2.35	1
0	2614	2.35	2
0	2615	2.35	1
0	2712	2.4	1
0	2713	2.4	2
0	2714	2.4	1
0	2715	2.4	1
0	2716	2.4	2
0	2717	2.4	1
0	2824	2.45	1
0	2825	2.45	2
0	2826	2.45	1
0	2923	2.5	1
0	2924	2.5	2
0	2925	2.5	1
0	2926	2.5	1
0	2927	2.5	2
0	2928	2.5	1
0	3037	2.55	1
0	3038	2.55	2
0	3039	2.55	1
0	3136	2.6	1
0	3137	2.6	2
0	3138	2.6	1
0	3139	2.6	1
0	3140	2.6	2
0	3141	2.6	1
0	3244	2.65	1
0	3245	2.65	2
0	3246	2.65	1
0	3347	2.7	1
0	3348	2.7	2
0	3349	2.7	1
0	3350	2.7	1
0	3351	2.7	2
0	3352	2.7	1
0	3455	2.75	1
0	3456	2.75	2
0	3457	2.75	1
0	3556	2.8	1
0	3557	2.8	2
0	3558	2.8	1
0	3559	2.8	1
0	3560	2.8	2
0	3561	2.8	1
0	3574	2.85	1
0	3575	2.85	2
0	3576	2.85	1
0	3583	2.9	1
0	3584	2.9	2
0	3585	2.9	1
0	3586	2.9	1
0	3587	2.9	2
0	3588	2.9	1
0	3601	2.95	1
0	3602	2.95	2
0	3603	2.95	1
0	3610	3	1
0	3611	3	2
0	3612	3	1
0	3613	3	1
0	3614	3	2
0	3615	3	1
0	3628	3.05	1
0	3629	3.05	2
0	3630	3.05	1
0	3637	3.1	1
0	3638	3.1	2
0	3639	3.1	1
0	3640	3.1	1
0	3641	3.1	2
0	3642	3.1	1
0	3655	3.15	1
0	3656	3.15	2
0	3657	3.15	1
0	3664	3.2	1
0	3665	3.2	2
0	3666	3.2	1
0	3667	3.2	1
0	3668	3.2	2
0	3669	3.2	1
0	3682	3.25	1
0	3683	3.25	2
0	3684	3.25	1
0	3691	3.3	1
0	3692	3.3	2
0	3693	3.3	1
0	3694	3.3	1
0	3695	3.3	2
0	3696	3.3	1
0	3761	3.35	1
0	3762	3.35	2
0	3763	3.35	1
0	3770	3.4	1
0	3771	3.4	2
0	3772	3.4	1
0	3773	3.4	1
0	3774	3.4	2
0	3775	3.4	1
0	3788	3.45	1
0	3789	3.45	2
0	3790	3.45	1
0	3797	3.5	1
0	3798	3.5	2
0	3799	3.5	1
0	3800	3.5	1
0	3801	3.5	2
0	3802	3.5	1
0	3815	3.55	1
0	3816	3.55	2
0	3817	3.55	1
0	3824	3.6	1
0	3825	3.6	2
0	3826	3.6	1
0	3827	3.6	1
0	3828	3.6	2
0	3829	3.6	1
0	3842	3.65	1
0	3843	3.65	2
0	3844	3.65	1
0	3851	3.7	1
0	3852	3.7	2
0	3853	3.7	1
0	3854	3.7	1
0	3855	3.7	2
0	3856	3.7	1
0	3869	3.75	1
0	3870	3.75	2
0	3871	3.75	1
0	3878	3.8	1
0	3879	3.8	2
0	3880	3.8	1
0	3881	3.8	1
0	3882	3.8	2
0	3883	3.8	1
0	3896	3.85	1
0	3897	3.85	2
0	3898	3.85	1
0	3957	3.9	1
0	3958	3.9	2
0	3959	3.9	1
0	3960	3.9	1
0	3961	3.9	2
0	3962	3.9	1
0	3975	3.95	1
0	3976	3.95	2
0	3977	3.95	1
0	3984	4	1
0	3985	4	2
0	3986	4	1
0	3987	4	1
0	3988	4	2
0	3989	4	1
0	4002	4.05	1
0	4003	4.05	2
0	4004	4.05	1
0	4011	4.1	1
0	4012	4.1	2
0	4013	4.1	1
0	4014	4.1	1
0	4015	4.1	2
0	4016	4.1	1
0	4029	4.15	1
0	4030	4.15	2
0	4031	4.15	1
0	4038	4.2	1
0	4039	4.2	2
0	4040	4.2	1
0	4041	4.2	1
0	4042	4.2	2
0	4043	4.2	1
0	4056	4.25	1
0	4057	4.25	2
0	4058	4.25	1
0	4065	4.3	1
0	4066	4.3	2
0	4067	4.3	1
0	4068	4.3	1
0	4069	4.3	2
0	4070	4.3	1
0	4083	4.35	1
0	4084	4.35	2
0	4085	4.35	1
0	4092	4.4	1
0	4093	4.4	2
0	4094	4.4	1
0	4095	4.4	1
0	4096	4.4	2
0	4097	4.4	1
0	4162	4.45	1
0	4163	4.45	2
0	4164	4.45	1
0	4171	4.5	1
0	4172	4.5	2
0	4173	4.5	1
0	4174	4.5	1
0	4175	4.5	2
0	4176	4.5	1
0	4189	4.55	1
0	4190	4.55	2
0	4191	4.55	1
0	4198	4.6	1
0	4199	4.6	2
0	4200	4.6	1
0	4201	4.6	1
0	4202	4.6	2
0	4203	4.6	1
0	4216	4.65	1
0	4217	4.65	2
0	4218	4.65	1
0	4225	4.7	1
0	4226	4.7	2
0	4227	4.7	1
0	4228	4.7	1
0	4229	4.7	2
0	4230	4.7	1
0	4243	4.75	1
0	4244	4.75	2
0	4245	4.75	1
0	4252	4.8	1
0	4253	4.8	2
0	4254	4.8	1
0	4255	4.8	1
0	4256	4.8	2
0	4257	4.8	1
0	4270	4.85	1
0	4271	4.85	2
0	4272	4.85	1
0	4279	4.9	1
0	4280	4.9	2
0	4281	4.9	1
0	4282	4.9	1
0	4283	4.9	2
0	4284	4.9	1
0	4297	4.95	1
0	4298	4.95	2
0	4299	4.95	1
0	4358	5	1
0	4359	5	2
0	4360	5	1
0	4361	5	1
0	4362	5	2
0	4363	5	1
0	4376	5.05	1
0	4377	5.05	2
0	4378	5.05	1
0	4385	5.1	1
0	4386	5.1	2
0	4387	5.1	1
0	4388	5.1	1
0	4389	5.1	2
0	4390	5.1	1
0	4403	5.15	1
0	4404	5.15	2
0	4405	5.15	1
0	4412	5.2	1
0	4413	5.2	2
0	4414	5.2	1
0	4415	5.2	1
0	4416	5.2	2
0	4417	5.2	1
0	4430	5.25	1
0	4431	5.25	2
0	4432	5.25	1
0	4439	5.3	1
0	4440	5.3	2
0	4441	5.3	1
0	4442	5.3	1
0	4443	5.3	2
0	4444	5.3	1
0	4457	5.35	1
0	4458	5.35	2
0	4459	5.35	1
0	4466	5.4	1
0	4467	5.4	2
0	4468	5.4	1
0	4469	5.4	1
0	4470	5.4	2
0	4471	5.4	1
0	4484	5.45	1
0	4485	5.45	2
0	4486	5.45	1
0	4493	5.5	1
0	4494	5.5	2
0	4495	5.5	1
0	4496	5.5	1
0	4497	5.5	2
0	4498	5.5	1
0	4563	5.55	1
0	4564	5.55	2
0	4565	5.55	1
0	4572	5.6	1
0	4573	5.6	2
0	4574	5.6	1
0	4575	5.6	1
0	4576	5.6	2
0	4577	5.6	1
0	4590	5.65	1
0	4591	5.65	2
0	4592	5.65	1
0	4599	5.7	1
0	4600	5.7	2
0	4601	5.7	1
0	4602	5.7	1
0	4603	5.7	2
0	4604	5.7	1
0	4617	5.75	1
0	4618	5.75	2
0	4619	5.75	1
0	4626	5.8	1
0	4627	5.8	2
0	4628	5.8	1
0	4629	5.8	1
0	4630	5.8	2
0	4631	5.8	1
0	4644	5.85	1
0	4645	5.85	2
0	4646	5.85	1
0	4653	5.9	1
0	4654	5.9	2
0	4655	5.9	1
0	4656	5.9	1
0	4657	5.9	2
0	4658	5.9	1
0	4671	5.95	1
0	4672	5.95	2
0	4673	5.95	1
0	4680	6	1
0	4681	6	2
0	4682	6	1
0	4683	6	1
0	4684	6	2
0	4685	6	1
0	4698	6.05	1
0	4699	6.05	2
0	4700	6.05	1
0	4759	6.1	1
0	4760	6.1	2
0	4761	6.1	1
0	4762	6.1	1
0	4763	6.1	2
0	4764	6.1	1
0	4777	6.15	1
0	4778	6.15	2
0	4779	6.15	1
0	4786	6.2	1
0	4787	6.2	2
0	4788	6.2	1
0	4789	6.2	1
0	4790	6.2	2
0	4791	6.2	1
0	4804	6.25	1
0	4805	6.25	2
0	4806	6.25	1
0	4813	6.3	1
0	4814	6.3	2
0	4815	6.3	1
0	4816	6.3	1
0	4817	6.3	2
0	4818	6.3	1
0	4831	6.35	1
0	4832	6.35	2
0	4833	6.35	1
0	4840	6.4	1
0	4841	6.4	2
0	4842	6.4	1
0	4843	6.4	1
0	4844	6.4	2
0	4845	6.4	1
0	4858	6.45	1
0	4859	6.45	2
0	4860	6.45	1
0	4867	6.5	1
0	4868	6.5	2
0	4869	6.5	1
0	4870	6.5	1
0	4871	6.5	2
0	4872	6.5	1
0	4885	6.55	1
0	4886	6.55	2
0	4887	6.55	1
0	4894	6.6	1
0	4895	6.6	2
0	4896	6.6	1
0	4897	6.6	1
0	4898	6.6	2
0	4899	6.6	1
0	4964	6.65	1
0	4965	6.65	2
0	4966	6.65	1
0	4973	6.7	1
0	4974	6.7	2
0	4975	6.7	1
0	4976	6.7	1
0	4977	6.7	2
0	4978	6.7	1
0	4991	6.75	1
0	4992	6.75	2
0	4993	6.75	1
0	5000	6.8	1
0	5001	6.8	2
0	5002	6.8	1
0	5003	6.8	1
0	5004	6.8	2
0	5005	6.8	1
0	5018	6.85	1
0	5019	6.85	2
0	5020	6.85	1
0	5027	6.9	1
0	5028	6.9	2
0	5029	6.9	1
0	5030	6.9	1
0	5031	6.9	2
0	5032	6.9	1
0	5045	6.95	1
0	5046	6.95	2
0	5047	6.95	1
0	5054	7	1
0	5055	7	2
0	5056	7	1
0	5057	7	1
0	5058	7	2
0	5059	7	1
0	5072	7.05	1
0	5073	7.05	2
0	5074	7.05	1
0	5081	7.1	1
0	5082	7.1	2
0	5083	7.1	1
0	5084	7.1	1
0	5085	7.1	2
0	5086	7.1	1
0	5099	7.15	1
0	5100	7.15	2
0	5101	7.15	1
0	5160	7.2	1
0	5161	7.2	2
0	5162	7.2	1
0	5163	7.2	1
0	5164	7.2	2
0	5165	7.2	1
0	5178	7.25	1
0	5179	7.25	2
0	5180	7.25	1
0	5187	7.3	1
0	5188	7.3	2
0	5189	7.3	1
0	5190	7.3	1
0	5191	7.3	2
0	5192	7.3	1
0	5205	7.35	1
0	5206	7.35	2
0	5207	7.35	1
0	5214	7.4	1
0	5215	7.4	2
0	5216	7.4	1
0	5217	7.4	1
0	5218	7.4	2
0	5219	7.4	1
0	5232	7.45	1
0	5233	7.45	2
0	5234	7.45	1
0	5241	7.5	1
0	5242	7.5	2
0	5243	7.5	1
0	5244	7.5	1
0	5245	7.5	2
0	5246	7.5	1
0	5259	7.55	1
0	5260	7.55	2
0	5261	7.55	1
0	5268	7.6	1
0	5269	7.6	2
0	5270	7.6	1
0	5271	7.6	1
0	5272	7.6	2
0	5273	7.6	1
0	5286	7.65	1
0	5287	7.65	2
0	5288	7.65	1
0	5295	7.7	1
0	5296	7.7	2
0	5297	7.7	1
0	5298	7.7	1
0	5299	7.7	2
0	5300	7.7	1
0	5365	7.75	1
0	5366	7.75	2
0	5367	7.75	1
0	5374	7.8	1
0	5375	7.8	2
0	5376	7.8	1
0	5377	7.8	1
0	5378	7.8	2
0	5379	7.8	1
0	5392	7.85	1
0	5393	7.85	2
0	5394	7.85	1
0	5401	7.9	1
0	5402	7.9	2
0	5403	7.9	1
0	5404	7.9	1
0	5405	7.9	2
0	5406	7.9	1
0	5419	7.95	1
0	5420	7.95	2
0	5421	7.95	1
0	5428	8	1
0	5429	8	2
0	5430	8	1
0	5431	8	1
0	5432	8	2
0	5433	8	1
0	5446	8.05	1
0	5447	8.05	2
0	5448	8.05	1
0	5455	8.1	1
0	5456	8.1	2
0	5457	8.1	1
0	5458	8.1	1
0	5459	8.1	2
0	5460	8.1	1
0	5473	8.15	1
0	5474	8.15	2
0	5475	8.15	1
0	5482	8.2	1
0	5483	8.2	2
0	5484	8.2	1
0	5485	8.2	1
0	5486	8.2	2
0	5487	8.2	1
0	5500	8.25	1
0	5501	8.25	2
0	5502	8.25	1
0	5561	8.3	1
0	5562	8.3	2
0	5563	8.3	1
0	5564	8.3	1
0	5565	8.3	2
0	5566	8.3	1
0	5579	8.35	1
0	5580	8.35	2
0	5581	8.35	1
0	5588	8.4	1
0	5589	8.4	2
0	5590	8.4	1
0	5591	8.4	1
0	5592	8.4	2
0	5593	8.4	1
0	5606	8.45	1
0	5607	8.45	2
0	5608	8.45	1
0	5615	8.5	1
0	5616	8.5	2
0	5617	8.5	1
0	5618	8.5	1
0	5619	8.5	2
0	5620	8.5	1
0	5633	8.55	1
0	5634	8.55	2
0	5635	8.55	1
0	5642	8.6	1
0	5643	8.6	2
0	5644	8.6	1
0	5645	8.6	1
0	5646	8.6	2
0	5647	8.6	1
0	5660	8.65	1
0	5661	8.65	2
0	5662	8.65	1
0	5669	8.7	1
0	5670	8.7	2
0	5671	8.7	1
0	5672	8.7	1
0	5673	8.7	2
0	5674	8.7	1
0	5687	8.75	1
0	5688	8.75	2
0	5689	8.75	1
0	5696	8.8	1
0	5697	8.8	2
0	5698	8.8	1
0	5699	8.8	1
0	5700	8.8	2
0	5701	8.8	1
0	5766	8.85	1
0	5767	8.85	2
0	5768	8.85	1
0	5775	8.9	1
0	5776	8.9	2
0	5777	8.9	1
0	5778	8.9	1
0	5779	8.9	2
0	5780	8.9	1
0	5793	8.95	1
0	5794	8.95	2
0	5795	8.95	1
0	5802	9	1
0	5803	9	2
0	5804	9	1
0	5805	9	1
0	5806	9	2
0	5807	9	1
0	5820	9.05	1
0	5821	9.05	2
0	5822	9.05	1
0	5829	9.1	1
0	5830	9.1	2
0	5831	9.1	1
0	5832	9.1	1
0	5833	9.1	2
0	5834	9.1	1
0	5847	9.15	1
0	5848	9.15	2
0	5849	9.15	1
0	5856	9.2	1
0	5857	9.2	2
0	5858	9.2	1
0	5859	9.2	1
0	5860	9.2	2
0	5861	9.2	1
0	5874	9.25	1
0	5875	9.25	2
0	5876	9.25	1
0	5883	9.3	1
0	5884	9.3	2
0	5885	9.3	1
0	5886	9.3	1
0	5887	9.3	2
0	5888	9.3	1
0	5901	9.35	1
0	5902	9.35	2
0	5903	9.35	1
0	5962	9.4	1
0	5963	9.4	2
0	5964	9.4	1
0	5965	9.4	1
0	5966	9.4	2
0	5967	9.4	1
0	5980	9.45	1
0	5981	9.45	2
0	5982	9.45	1
0	5989	9.5	1
0	5990	9.5	2
0	5991	9.5	1
0	5992	9.5	1
0	5993	9.5	2
0	5994	9.5	1
0	6007	9.55	1
0	6008	9.55	2
0	6009	9.55	1
0	6016	9.6	1
0	6017	9.6	2
0	6018	9.6	1
0	6019	9.6	1
0	6020	9.6	2
0	6021	9.6	1
0	6034	9.65	1
0	6035	9.65	2
0	6036	9.65	1
0	6043	9.7	1
0	6044	9.7	2
0	6045	9.7	1
0	6046	9.7	1
0	6047	9.7	2
0	6048	9.7	1
0	6061	9.75	1
0	6062	9.75	2
0	6063	9.75	1
0	6070	9.8	1
0	6071	9.8	2
0	6072	9.8	1
0	6073	9.8	1
0	6074	9.8	2
0	6075	9.8	1
0	6088	9.85	1
0	6089	9.85	2
0	6090	9.85	1
0	6097	9.9	1
0	6098	9.9	2
0	6099	9.9	1
0	6100	9.9	1
0	6101	9.9	2
0	6102	9.9	1
0	6167	9.95	1
0	6168	9.95	2
0	6169	9.95	1
0	6176	10	1
0	6177	10	2
0	6178	10	1
0	6179	10	1
0	6180	10	2
0	6181	10	1
1	19	0.1	-nan
1	39	0.101	-nan
1	41	0.102	-nan
1	43	0.103	-nan
1	45	0.104	-nan
1	47	0.105	-nan
1	49	0.106	-nan
1	51	0.107	-nan
1	53	0.108	-nan
1	55	0.109	-nan
1	57	0.11	-nan
1	59	0.111	-nan
1	61	0.112	-nan
1	63	0.113	-nan
1	65	0.114	-nan
1	67	0.115	-nan
1	69	0.116	-nan
1	71	0.117	-nan
1	73	0.118	-nan
1	75	0.119	-nan
1	77	0.12	-nan
1	79	0.121	-nan
1	81	0.122	-nan
1	83	0.123	-nan
1	85	0.124	-nan
1	87	0.125	-nan
1	89	0.126	-nan
1	91	0.127	-nan
1	93	0.128	-nan
1	95	0.129	-nan
1	97	0.13	-nan
1	99	0.131	-nan
1	101	0.132	-nan
1	103	0.133	-nan
1	105	0.134	-nan
1	107	0.135	-nan
1	109	0.136	-nan
1	111	0.137	-nan
1	113	0.138	-nan
1	115	0.139	-nan
1	117	0.14	-nan
1	119	0.141	-nan
1	121	0.142	-nan
1	123	0.143	-nan
1	125	0.144	-nan
1	127	0.145	-nan
1	129	0.146	-nan
1	131	0.147	-nan
1	133	0.148	-nan
1	135	0.149	-nan
1	140	0.15	-nan
1	148	0.151	-nan
1	150	0.152	-nan
1	152	0.153	-nan
1	154	0.154	-nan
1	156	0.155	-nan
1	158	0.156	-nan
1	160	0.157	-nan
1	162	0.158	-nan
1	164	0.159	-nan
1	166	0.16	-nan
1	168	0.161	-nan
1	170	0.162	-nan
1	172	0.163	-nan
1	174	0.164	-nan
1	176	0.165	-nan
1	178	0.166	-nan
1	180	0.167	-nan
1	182	0.168	-nan
1	184	0.169	-nan
1	186	0.17	-nan
1	188	0.171	-nan
1	190	0.172	-nan
1	192	0.173	-nan
1	194	0.174	-nan
1	196	0.175	-nan
1	198	0.176	-nan
1	200	0.177	-nan
1	202	0.178	-nan
1	204	0.179	-nan
1	206	0.18	-nan
1	208	0.181	-nan
1	210	0.182	-nan
1	212	0.183	-nan
1	214	0.184	-nan
1	216	0.185	-nan
1	218	0.186	-nan
1	220	0.187	-nan
1	222	0.188	-nan
1	224	0.189	-nan
1	226	0.19	-nan
1	228	0.191	-nan
1	230	0.192	-nan
1	232	0.193	-nan
1	234	0.194	-nan
1	236	0.195	-nan
1	238	0.196	-nan
1	240	0.197	-nan
1	242	0.198	-nan
1	244	0.199	-nan
2	958	1.66904	36
2	968	1.67448	72
2	978	1.67992	108
2	988	1.68536	144
2	998	1.6908	180
2	1008	1.69624	216
2	1036	1.70168	252
2	1046	1.70712	288
2	1056	1.71256	324
2	1066	1.718	360
2	1076	1.72344	396
2	1086	1.72888	432
2	1096	1.73432	468
2	1106	1.73976	504
2	1116	1.7452	540
2	1135	1.75064	576
2	1145	1.75608	612
2	1155	1.76152	648
2	1165	1.76696	684
2	1175	1.7724	720
2	1185	1.77784	756
2	1195	1.78328	792
2	1205	1.78872	828
2	1215	1.79416	864
2	1225	1.7996	900
2	1253	1.80504	936
2	1263	1.81048	972
2	1273	1.81592	1008
2	1283	1.82136	1044
2	1293	1.8268	1080
2	1303	1.83224	1116
2	1313	1.83768	1152
2	1323	1.84312	1188
2	1333	1.84856	1224
2	1352	1.854	1260
2	1362	1.85944	1296
2	1372	1.86488	1332
2	1382	1.87032	1368
2	1392	1.87576	1404
2	1402	1.8812	1440
2	1412	1.88664	1476
2	1422	1.89208	1512
2	1432	1.89752	1548
2	1460	1.90296	1584
2	1470	1.9084	1620
2	1480	1.91384	1656
2	1490	1.91928	1692
2	1500	1.92472	1728
2	1510	1.93016	1764
2	1520	1.9356	1800
2	1530	1.94104	1836
2	1540	1.94648	1872
2	1559	1.95192	1908
2	1569	1.95736	1944
2	1579	1.9628	1980
2	1589	1.96824	2016
2	1599	1.97368	2052
2	1609	1.97912	2088
2	1619	1.98456	2124
2	1629	1.99	2160
2	1639	1.99544	2196
2	1667	2.00088	2232
2	1677	2.00632	2268
2	1687	2.01176	2304
2	1697	2.0172	2340
2	1707	2.02264	2376
2	1717	2.02808	2412
2	1727	2.03352	2448
2	1737	2.03896	2484
2	1747	2.0444	2520
2	1757	2.04984	2556
2	1776	2.05528	2592
2	1786	2.06072	2628
2	1796	2.06616	2664
2	1806	2.0716	2700
2	1816	2.07704	2736
2	1826	2.08248	2772
2	1836	2.08792	2808
2	1846	2.09336	2844
2	1856	2.0988	2880
2	1884	2.10424	2916
2	1894	2.10968	2952
2	1904	2.11512	2988
2	1914	2.12056	3024
2	1924	2.126	3060
2	1934	2.13144	3096
2	1944	2.13688	3132
2	1954	2.14232	3168
2	1964	2.14776	3204
2	1983	2.1532	3240
2	1993	2.15864	3276
2	2003	2.16408	3312
2	2013	2.16952	3348
2	2023	2.17496	3384
2	2033	2.1804	3420
2	2043	2.18584	3456
2	2053	2.19128	3492
2	2063	2.19672	3528
2	2099	2.20216	3564
2	2119	2.2076	3600
2	2363	2.2288	3636
2	2373	2.23424	3672
2	2383	2.23968	3708
2	2393	2.24512	3744
2	2412	2.25056	3780
2	2422	2.256	3816
2	2432	2.26144	3852
2	2442	2.26688	3888
2	2452	2.27232	3924
2	2462	2.27776	3960
2	2472	2.2832	3996
2	2482	2.28864	4032
2	2492	2.29408	4068
2	2502	2.29952	4104
2	2530	2.30496	4140
2	2540	2.3104	4176
2	2550	2.31584	4212
2	2560	2.32128	4248
2	2570	2.32672	4284
2	2580	2.33216	4320
2	2590	2.3376	4356
2	2600	2.34304	4392
2	2610	2.34848	4428
2	2629	2.35392	4464
2	2639	2.35936	4500
2	2649	2.3648	4536
2	2659	2.37024	4572
2	2669	2.37568	4608
2	2679	2.38112	4644
2	2689	2.38656	4680
2	2699	2.392	4716
2	2709	2.39744	4752
2	2737	2.40288	4788
2	2747	2.40832	4824
2	2757	2.41376	4860
2	2767	2.4192	4896
2	2777	2.42464	4932
2	2787	2.43008	4968
2	2797	2.43552	5004
2	2807	2.44096	5040
2	2817	2.4464	5076
2	2836	2.45184	5112
2	2846	2.45728	5148
2	2856	2.46272	5184
2	2866	2.46816	5220
2	2876	2.4736	5256
2	2886	2.47904	5292
2	2896	2.48448	5328
2	2906	2.48992	5364
2	2916	2.49536	5400
2	2944	2.5008	5436
2	2954	2.50624	5472
2	2964	2.51168	5508
2	2974	2.51712	5544
2	2984	2.52256	5580
2	2994	2.528	5616
2	3004	2.53344	5652
2	3014	2.53888	5688
2	3024	2.54432	5724
2	3034	2.54976	5760
2	3053	2.5552	5796
2	3063	2.56064	5832
2	3073	2.56608	5868
2	3083	2.57152	5904
2	3093	2.57696	5940
2	3103	2.5824	5976
2	3113	2.58784	6012
2	3123	2.59328	6048
2	3133	2.59872	6084
2	3161	2.60416	6120
2	3171	2.6096	6156
2	3181	2.61504	6192
2	3191	2.62048	6228
2	3201	2.62592	6264
2	3211	2.63136	6300
2	3221	2.6368	6336
2	3231	2.64224	6372
2	3241	2.64768	6408
2	3260	2.65312	6444
2	3270	2.65856	6480
2	3280	2.664	6516
2	3290	2.66944	6552
2	3300	2.67488	6588
2	3310	2.68032	6624
2	3320	2.68576	6660
2	3330	2.6912	6696
2	3340	2.69664	6732
2	3368	2.70208	6768
2	3378	2.70752	6804
2	3388	2.71296	6840
2	3398	2.7184	6876
2	3408	2.72384	6912
2	3418	2.72928	6948
2	3428	2.73472	6984
2	3438	2.74016	7020
2	3448	2.7456	7056
2	3475	2.75104	7092
2	3495	2.75648	7128
2	3509	2.76192	7164
2	3519	2.76736	7200
3	958	1.66904	36
3	968	1.67448	72
3	978	1.67992	108
3	988	1.68536	144
3	998	1.6908	180
3	1008	1.69624	216
3	1036	1.70168	252
3	1046	1.70712	288
3	1056	1.71256	324
3	1066	1.718	360
3	1076	1.72344	396
3	1086	1.72888	432
3	1096	1.73432	468
3	1106	1.73976	504
3	1116	1.7452	540
3	1135	1.75064	576
3	1145	1.75608	612
3	1155	1.76152	648
3	1165	1.76696	684
3	1175	1.7724	720
3	1185	1.77784	756
3	1195	1.78328	792
3	1205	1.78872	828
3	1215	1.79416	864
3	1225	1.7996	900
3	1253	1.80504	936
3	1263	1.81048	972
3	1273	1.81592	1008
3	1283	1.82136	1044
3	1293	1.8268	1080
3	1303	1.83224	1116
3	1313	1.83768	1152
3	1323	1.84312	1188
3	1333	1.84856	1224
3	1352	1.854	1260
3	1362	1.85944	1296
3	1372	1.86488	1332
3	1382	1.87032	1368
3	1392	1.87576	1404
3	1402	1.8812	1440
3	1412	1.88664	1476
3	1422	1.89208	1512
3	1432	1.89752	1548
3	1460	1.90296	1584
3	1470	1.9084	1620
3	1480	1.91384	1656
3	1490	1.91928	1692
3	1500	1.92472	1728
3	1510	1.93016	1764
3	1520	1.9356	1800
3	1530	1.94104	1836
3	1540	1.94648	1872
3	1559	1.95192	1908
3	1569	1.95736	1944
3	1579	1.9628	1980
3	1589	1.96824	2016
3	1599	1.97368	2052
3	1609	1.97912	2088
3	1619	1.98456	2124
3	1629	1.99	2160
3	1639	1.99544	2196
3	1667	2.00088	2232
3	1677	2.00632	2268
3	1687	2.01176	2304
3	1697	2.0172	2340
3	1707	2.02264	2376
3	1717	2.02808	2412
3	1727	2.03352	2448
3	1737	2.03896	2484
3	1747	2.0444	2520
3	1757	2.04984	2556
3	1776	2.05528	2592
3	1786	2.06072	2628
3	1796	2.06616	2664
3	1806	2.0716	2700
3	1816	2.07704	2736
3	1826	2.08248	2772
3	1836	2.08792	2808
3	1846	2.09336	2844
3	1856	2.0988	2880
3	1884	2.10424	2916
3	1894	2.10968	2952
3	1904	2.11512	2988
3	1914	2.12056	3024
3	1924	2.126	3060
3	1934	2.13144	3096
3	1944	2.13688	3132
3	1954	2.14232	3168
3	1964	2.14776	3204
3	1983	2.1532	3240
3	1993	2.15864	3276
3	2003	2.16408	3312
3	2013	2.16952	3348
3	2023	2.17496	3384
3	2033	2.1804	3420
3	2043	2.18584	3456
3	2053	2.19128	3492
3	2063	2.19672	3528
3	2099	2.20216	3564
3	2119	2.2076	3600
3	2363	2.2288	3636
3	2373	2.23424	3672
3	2383	2.23968	3708
3	2393	2.24512	3744
3	2412	2.25056	3780
3	2422	2.256	3816
3	2432	2.26144	3852
3	2442	2.26688	3888
3	2452	2.27232	3924
3	2462	2.27776	3960
3	2472	2.2832	3996
3	2482	2.28864	4032
3	2492	2.29408	4068
3	2502	2.29952	4104
3	2530	2.30496	4140
3	2540	2.3104	4176
3	2550	2.31584	4212
3	2560	2.32128	4248
3	2570	2.32672	4284
3	2580	2.33216	4320
3	2590	2.3376	4356
3	2600	2.34304	4392
3	2610	2.34848	4428
3	2629	2.35392	4464
3	2639	2.35936	4500
3	2649	2.3648	4536
3	2659	2.37024	4572
3	2669	2.37568	4608
3	2679	2.38112	4644
3	2689	2.38656	4680
3	2699	2.392	4716
3	2709	2.39744	4752
3	2737	2.40288	4788
3	2747	2.40832	4824
3	2757	2.41376	4860
3	2767	2.4192	4896
3	2777	2.42464	4932
3	2787	2.43008	4968
3	2797	2.43552	5004
3	2807	2.44096	5040
3	2817	2.4464	5076
3	2836	2.45184	5112
3	2846	2.45728	5148
3	2856	2.46272	5184
3	2866	2.46816	5220
3	2876	2.4736	5256
3	2886	2.47904	5292
3	2896	2.48448	5328
3	2906	2.48992	5364
3	2916	2.49536	5400
3	2944	2.5008	5436
3	2954	2.50624	5472
3	2964	2.51168	5508
3	2974	2.51712	5544
3	2984	2.52256	5580
3	2994	2.528	5616
3	3004	2.53344	5652
3	3014	2.53888	5688
3	3024	2.54432	5724
3	3034	2.54976	5760
3	3053	2.5552	5796
3	3063	2.56064	5832
3	3073	2.56608	5868
3	3083	2.57152	5904
3	3093	2.57696	5940
3	3103	2.5824	5976
3	3113	2.58784	6012
3	3123	2.59328	6048
3	3133	2.59872	6084
3	3161	2.60416	6120
3	3171	2.6096	6156
3	3181	2.61504	6192
3	3191	2.62048	6228
3	3201	2.62592	6264
3	3211	2.63136	6300
3	3221	2.6368	6336
3	3231	2.64224	6372
3	3241	2.64768	6408
3	3260	2.65312	6444
3	3270	2.65856	6480
3	3280	2.664	6516
3	3290	2.66944	6552
3	3300	2.67488	6588
3	3310	2.68032	6624
3	3320	2.68576	6660
3	3330	2.6912	6696
3	3340	2.69664	6732
3	3368	2.70208	6768
3	3378	2.70752	6804
3	3388	2.71296	6840
3	3398	2.7184	6876
3	3408	2.72384	6912
3	3418	2.72928	6948
3	3428	2.73472	6984
3	3438	2.74016	7020
3	3448	2.7456	7056
3	3475	2.75104	7092
3	3495	2.75648	7128
3	3509	2.76192	7164
3	3519	2.76736	7200

