version 2
run A2-0-20191027-00:28:17-18604
attr configname A2
attr datetime 20191027-00:28:17
attr experiment A2
attr inifile DanTests.ini
attr iterationvars ""
attr iterationvarsf ""
attr measurement ""
attr network NetworkTormV2
attr processid 18604
attr repetition 0
attr replication #0
attr resultdir results
attr runnumber 0
attr seedset 0
param **.mobility.traceFile "\"paths/A.movements\""
param **.numNodes 3
param **.wirelessIfc.wirelessRange 25m
param **.bluetoothIfc.wirelessRange 25m
param **application.destinationAddr "\"Wf:00:00:00:00:02\""
param **application.destinationBTAddr "\"Bt:00:00:00:00:02\""
param **application.nodesThatGen true
param **application.nodesGenMsg "\"0,1\""
param **application.startMultipleMsg true
param **application.numMultipleMsg 100
param **application.hopsListSize 50
param **.routingLayer "\"EpidemicRoutingLayer\""
param **.numNodes 2
param **.application.usedRNG 1
param **.application.dataGenerationInterval 1ms
param **.application.dataSizeInBytes 10
param **.application.ttl 999999s
param **application.destinationAddr "\"Wf:00:00:00:00:02\""
param **application.destinationBTAddr "\"Bt:00:00:00:00:02\""
param **application.nodesThatGen true
param **application.nodesGenMsg "\"0\""
param **application.startMultipleMsg true
param **application.numMultipleMsg 100
param **application.hopsListSize 50
param **.application.endGeneratingMsg 999999s
param **.routingLayer "\"RoutingLqeGw\""
param **.routing.maximumCacheSize 5000byte
param **.routing.maximumHopCount 25
param **.routing.useTTL false
param **.routing.waitBFsend 0.5
param **.routing.max_age 999999s
param **.routing.gateway_list "\"Wf:00:00:00:00:02;0|.\""
param **.routing.actual_gateway "\"Wf:00:00:00:00:02\""
param **.routing.gwCheckPeriod 5s
param **.neighboring.antiEntropyInterval 500ms
param **.neighboring.maximumRandomBackoffDuration 1s
param **.neighboring.delayPerDataMsg 0.1
param **neighboring.usedRNG 2
param **.neighboring.GWAddr "\"Wf:00:00:00:00:02\""
param **.neighboring.sendWifiFirst true
param **.neighboring.maxLengthGraph 20
param **.neighboring.max_age 999999s
param **.neighboring.max_absent_time 1s
param **.wirelessIfc.wirelessRange 40m
param **.wirelessIfc.neighbourScanInterval 50ms
param **.wirelessIfc.bandwidthBitRate 100000bps
param **.wirelessIfc.wirelessHeaderSize 32byte
param **.wirelessIfc.minSSI -90
param **.wirelessIfc.limitQueueTime 400ms
param **.wirelessIfc.my_limit_rate 0bps
param **.bluetoothIfc.wirelessRange 40m
param **.bluetoothIfc.neighbourScanInterval 100ms
param **.bluetoothIfc.bandwidthBitRate 100000bps
param **.bluetoothIfc.wirelessHeaderSize 16byte
param **.bluetoothIfc.minSSI -90
param **.mobilityType "\"BonnMotionMobility\""
param **.mobility.traceFile "\"paths/Moves2.movements\""
param **.mobility.is3D false
param **.mobility.nodeId -1

vector 0 NetworkTormV2 neighbourhoodSize:vector ETV
attr source neighbourhoodSize
vector 1 NetworkTormV2 deliveryRatio:vector ETV
attr source sum(totalDataBytesReceived)/sum(totalDataBytesReceivableByAllNodes)
vector 2 NetworkTormV2 dataBytesReceivedSum:vector ETV
attr source sum(dataBytesReceived)
vector 3 NetworkTormV2 totalBytesReceivedSum:vector ETV
attr source sum(totalBytesReceived)
0	10	0.05	1
0	11	0.05	2
0	12	0.05	1
0	38	0.1	1
0	40	0.1	2
0	41	0.1	1
0	42	0.1	1
0	43	0.1	2
0	44	0.1	1
0	273	0.15	1
0	274	0.15	2
0	275	0.15	1
0	500	0.2	1
0	501	0.2	2
0	502	0.2	1
0	503	0.2	1
0	504	0.2	2
0	505	0.2	1
0	536	0.25	1
0	537	0.25	2
0	538	0.25	1
0	563	0.3	1
0	564	0.3	2
0	565	0.3	1
0	566	0.3	1
0	567	0.3	2
0	568	0.3	1
0	599	0.35	1
0	600	0.35	2
0	601	0.35	1
0	626	0.4	1
0	627	0.4	2
0	628	0.4	1
0	629	0.4	1
0	630	0.4	2
0	631	0.4	1
0	662	0.45	1
0	663	0.45	2
0	664	0.45	1
0	689	0.5	1
0	690	0.5	2
0	691	0.5	1
0	692	0.5	1
0	693	0.5	2
0	694	0.5	1
0	725	0.55	1
0	726	0.55	2
0	727	0.55	1
0	752	0.6	1
0	753	0.6	2
0	754	0.6	1
0	755	0.6	1
0	756	0.6	2
0	757	0.6	1
0	788	0.65	1
0	789	0.65	2
0	790	0.65	1
0	815	0.7	1
0	816	0.7	2
0	817	0.7	1
0	818	0.7	1
0	819	0.7	2
0	820	0.7	1
0	851	0.75	1
0	852	0.75	2
0	853	0.75	1
0	878	0.8	1
0	879	0.8	2
0	880	0.8	1
0	881	0.8	1
0	882	0.8	2
0	883	0.8	1
0	914	0.85	1
0	915	0.85	2
0	916	0.85	1
0	941	0.9	1
0	942	0.9	2
0	943	0.9	1
0	944	0.9	1
0	945	0.9	2
0	946	0.9	1
0	977	0.95	1
0	978	0.95	2
0	979	0.95	1
0	1004	1	1
0	1005	1	2
0	1006	1	1
0	1007	1	1
0	1008	1	2
0	1009	1	1
0	1040	1.05	1
0	1041	1.05	2
0	1042	1.05	1
0	1067	1.1	1
0	1068	1.1	2
0	1069	1.1	1
0	1070	1.1	1
0	1071	1.1	2
0	1072	1.1	1
0	1805	1.15	1
0	1806	1.15	2
0	1807	1.15	1
0	1902	1.2	1
0	1903	1.2	2
0	1904	1.2	1
0	1905	1.2	1
0	1906	1.2	2
0	1907	1.2	1
0	2018	1.25	1
0	2019	1.25	2
0	2020	1.25	1
0	2105	1.3	1
0	2106	1.3	2
0	2107	1.3	1
0	2108	1.3	1
0	2109	1.3	2
0	2110	1.3	1
0	2221	1.35	1
0	2222	1.35	2
0	2223	1.35	1
0	2318	1.4	1
0	2319	1.4	2
0	2320	1.4	1
0	2321	1.4	1
0	2322	1.4	2
0	2323	1.4	1
0	2417	1.45	1
0	2418	1.45	2
0	2419	1.45	1
0	2517	1.5	1
0	2518	1.5	2
0	2519	1.5	1
0	2520	1.5	1
0	2521	1.5	2
0	2522	1.5	1
0	2623	1.55	1
0	2624	1.55	2
0	2625	1.55	1
0	2713	1.6	1
0	2714	1.6	2
0	2715	1.6	1
0	2716	1.6	1
0	2717	1.6	2
0	2718	1.6	1
0	2819	1.65	1
0	2820	1.65	2
0	2821	1.65	1
0	2936	1.7	1
0	2937	1.7	2
0	2938	1.7	1
0	2939	1.7	1
0	2940	1.7	2
0	2941	1.7	1
0	3045	1.75	1
0	3046	1.75	2
0	3047	1.75	1
0	3135	1.8	1
0	3136	1.8	2
0	3137	1.8	1
0	3138	1.8	1
0	3139	1.8	2
0	3140	1.8	1
0	3234	1.85	1
0	3235	1.85	2
0	3236	1.85	1
0	3331	1.9	1
0	3332	1.9	2
0	3333	1.9	1
0	3334	1.9	1
0	3335	1.9	2
0	3336	1.9	1
0	3430	1.95	1
0	3431	1.95	2
0	3432	1.95	1
0	3530	2	1
0	3531	2	2
0	3532	2	1
0	3533	2	1
0	3534	2	2
0	3535	2	1
0	3636	2.05	1
0	3637	2.05	2
0	3638	2.05	1
0	3733	2.1	1
0	3734	2.1	2
0	3735	2.1	1
0	3736	2.1	1
0	3737	2.1	2
0	3738	2.1	1
0	3842	2.15	1
0	3843	2.15	2
0	3844	2.15	1
0	3932	2.2	1
0	3933	2.2	2
0	3934	2.2	1
0	3935	2.2	1
0	3936	2.2	2
0	3937	2.2	1
0	4047	2.25	1
0	4048	2.25	2
0	4049	2.25	1
0	4144	2.3	1
0	4145	2.3	2
0	4146	2.3	1
0	4147	2.3	1
0	4148	2.3	2
0	4149	2.3	1
0	4250	2.35	1
0	4251	2.35	2
0	4252	2.35	1
0	4350	2.4	1
0	4351	2.4	2
0	4352	2.4	1
0	4353	2.4	1
0	4354	2.4	2
0	4355	2.4	1
0	4456	2.45	1
0	4457	2.45	2
0	4458	2.45	1
0	4553	2.5	1
0	4554	2.5	2
0	4555	2.5	1
0	4556	2.5	1
0	4557	2.5	2
0	4558	2.5	1
0	4683	2.55	1
0	4684	2.55	2
0	4685	2.55	1
0	4824	2.6	1
0	4825	2.6	2
0	4826	2.6	1
0	4827	2.6	1
0	4828	2.6	2
0	4829	2.6	1
0	4964	2.65	1
0	4965	2.65	2
0	4966	2.65	1
0	5113	2.7	1
0	5114	2.7	2
0	5115	2.7	1
0	5116	2.7	1
0	5117	2.7	2
0	5118	2.7	1
0	5278	2.75	1
0	5279	2.75	2
0	5280	2.75	1
0	5449	2.8	1
0	5450	2.8	2
0	5451	2.8	1
0	5452	2.8	1
0	5453	2.8	2
0	5454	2.8	1
0	5547	2.85	1
0	5548	2.85	2
0	5549	2.85	1
0	5631	2.9	1
0	5632	2.9	2
0	5633	2.9	1
0	5634	2.9	1
0	5635	2.9	2
0	5636	2.9	1
0	5721	2.95	1
0	5722	2.95	2
0	5723	2.95	1
0	5805	3	1
0	5806	3	2
0	5807	3	1
0	5808	3	1
0	5809	3	2
0	5810	3	1
0	5885	3.05	1
0	5886	3.05	2
0	5887	3.05	1
0	5969	3.1	1
0	5970	3.1	2
0	5971	3.1	1
0	5972	3.1	1
0	5973	3.1	2
0	5974	3.1	1
0	6077	3.15	1
0	6078	3.15	2
0	6079	3.15	1
0	6158	3.2	1
0	6159	3.2	2
0	6160	3.2	1
0	6161	3.2	1
0	6162	3.2	2
0	6163	3.2	1
0	6266	3.25	1
0	6267	3.25	2
0	6268	3.25	1
0	6382	3.3	1
0	6383	3.3	2
0	6384	3.3	1
0	6385	3.3	1
0	6386	3.3	2
0	6387	3.3	1
0	6480	3.35	1
0	6481	3.35	2
0	6482	3.35	1
0	6564	3.4	1
0	6565	3.4	2
0	6566	3.4	1
0	6567	3.4	1
0	6568	3.4	2
0	6569	3.4	1
0	6656	3.45	1
0	6657	3.45	2
0	6658	3.45	1
0	6740	3.5	1
0	6741	3.5	2
0	6742	3.5	1
0	6743	3.5	1
0	6744	3.5	2
0	6745	3.5	1
0	6828	3.55	1
0	6829	3.55	2
0	6830	3.55	1
0	6909	3.6	1
0	6910	3.6	2
0	6911	3.6	1
0	6912	3.6	1
0	6913	3.6	2
0	6914	3.6	1
0	7017	3.65	1
0	7018	3.65	2
0	7019	3.65	1
0	7108	3.7	1
0	7109	3.7	2
0	7110	3.7	1
0	7111	3.7	1
0	7112	3.7	2
0	7113	3.7	1
0	7206	3.75	1
0	7207	3.75	2
0	7208	3.75	1
0	7305	3.8	1
0	7306	3.8	2
0	7307	3.8	1
0	7308	3.8	1
0	7309	3.8	2
0	7310	3.8	1
0	7382	3.85	1
0	7383	3.85	2
0	7384	3.85	1
0	7481	3.9	1
0	7482	3.9	2
0	7483	3.9	1
0	7484	3.9	1
0	7485	3.9	2
0	7486	3.9	1
0	7583	3.95	1
0	7584	3.95	2
0	7585	3.95	1
0	7667	4	1
0	7668	4	2
0	7669	4	1
0	7670	4	1
0	7671	4	2
0	7672	4	1
0	7733	4.05	1
0	7734	4.05	2
0	7735	4.05	1
0	7820	4.1	1
0	7821	4.1	2
0	7822	4.1	1
0	7823	4.1	1
0	7824	4.1	2
0	7825	4.1	1
0	7898	4.15	1
0	7899	4.15	2
0	7900	4.15	1
0	7985	4.2	1
0	7986	4.2	2
0	7987	4.2	1
0	7988	4.2	1
0	7989	4.2	2
0	7990	4.2	1
0	8036	4.25	1
0	8037	4.25	2
0	8038	4.25	1
0	8066	4.3	1
0	8067	4.3	2
0	8068	4.3	1
0	8069	4.3	1
0	8070	4.3	2
0	8071	4.3	1
0	8102	4.35	1
0	8103	4.35	2
0	8104	4.35	1
0	8129	4.4	1
0	8130	4.4	2
0	8131	4.4	1
0	8132	4.4	1
0	8133	4.4	2
0	8134	4.4	1
0	8165	4.45	1
0	8166	4.45	2
0	8167	4.45	1
0	8192	4.5	1
0	8193	4.5	2
0	8194	4.5	1
0	8195	4.5	1
0	8196	4.5	2
0	8197	4.5	1
0	8228	4.55	1
0	8229	4.55	2
0	8230	4.55	1
0	8255	4.6	1
0	8256	4.6	2
0	8257	4.6	1
0	8258	4.6	1
0	8259	4.6	2
0	8260	4.6	1
0	8291	4.65	1
0	8292	4.65	2
0	8293	4.65	1
0	8318	4.7	1
0	8319	4.7	2
0	8320	4.7	1
0	8321	4.7	1
0	8322	4.7	2
0	8323	4.7	1
0	8354	4.75	1
0	8355	4.75	2
0	8356	4.75	1
0	8381	4.8	1
0	8382	4.8	2
0	8383	4.8	1
0	8384	4.8	1
0	8385	4.8	2
0	8386	4.8	1
0	8417	4.85	1
0	8418	4.85	2
0	8419	4.85	1
0	8906	4.9	1
0	8907	4.9	2
0	8908	4.9	1
0	8909	4.9	1
0	8910	4.9	2
0	8911	4.9	1
0	8994	4.95	1
0	8995	4.95	2
0	8996	4.95	1
0	9088	5	1
0	9089	5	2
0	9090	5	1
0	9091	5	1
0	9092	5	2
0	9093	5	1
0	9619	5.05	1
0	9620	5.05	2
0	9621	5.05	1
0	9726	5.1	1
0	9727	5.1	2
0	9728	5.1	1
0	9729	5.1	1
0	9730	5.1	2
0	9731	5.1	1
0	9874	5.15	1
0	9875	5.15	2
0	9876	5.15	1
0	9985	5.2	1
0	9986	5.2	2
0	9987	5.2	1
0	9988	5.2	1
0	9989	5.2	2
0	9990	5.2	1
0	10126	5.25	1
0	10127	5.25	2
0	10128	5.25	1
0	10257	5.3	1
0	10258	5.3	2
0	10259	5.3	1
0	10260	5.3	1
0	10261	5.3	2
0	10262	5.3	1
0	10378	5.35	1
0	10379	5.35	2
0	10380	5.35	1
0	10517	5.4	1
0	10518	5.4	2
0	10519	5.4	1
0	10520	5.4	1
0	10521	5.4	2
0	10522	5.4	1
0	10656	5.45	1
0	10657	5.45	2
0	10658	5.45	1
0	10792	5.5	1
0	10793	5.5	2
0	10794	5.5	1
0	10795	5.5	1
0	10796	5.5	2
0	10797	5.5	1
0	10940	5.55	1
0	10941	5.55	2
0	10942	5.55	1
0	11053	5.6	1
0	11054	5.6	2
0	11055	5.6	1
0	11056	5.6	1
0	11057	5.6	2
0	11058	5.6	1
0	11201	5.65	1
0	11202	5.65	2
0	11203	5.65	1
0	11322	5.7	1
0	11323	5.7	2
0	11324	5.7	1
0	11325	5.7	1
0	11326	5.7	2
0	11327	5.7	1
0	11460	5.75	1
0	11461	5.75	2
0	11462	5.75	1
0	11592	5.8	1
0	11593	5.8	2
0	11594	5.8	1
0	11595	5.8	1
0	11596	5.8	2
0	11597	5.8	1
0	11712	5.85	1
0	11713	5.85	2
0	11714	5.85	1
0	11836	5.9	1
0	11837	5.9	2
0	11838	5.9	1
0	11839	5.9	1
0	11840	5.9	2
0	11841	5.9	1
0	11961	5.95	1
0	11962	5.95	2
0	11963	5.95	1
0	12080	6	1
0	12081	6	2
0	12082	6	1
0	12083	6	1
0	12084	6	2
0	12085	6	1
0	12213	6.05	1
0	12214	6.05	2
0	12215	6.05	1
0	12324	6.1	1
0	12325	6.1	2
0	12326	6.1	1
0	12327	6.1	1
0	12328	6.1	2
0	12329	6.1	1
0	12472	6.15	1
0	12473	6.15	2
0	12474	6.15	1
0	12606	6.2	1
0	12607	6.2	2
0	12608	6.2	1
0	12609	6.2	1
0	12610	6.2	2
0	12611	6.2	1
0	12731	6.25	1
0	12732	6.25	2
0	12733	6.25	1
0	12870	6.3	1
0	12871	6.3	2
0	12872	6.3	1
0	12873	6.3	1
0	12874	6.3	2
0	12875	6.3	1
0	13000	6.35	1
0	13001	6.35	2
0	13002	6.35	1
0	13129	6.4	1
0	13130	6.4	2
0	13131	6.4	1
0	13132	6.4	1
0	13133	6.4	2
0	13134	6.4	1
0	13265	6.45	1
0	13266	6.45	2
0	13267	6.45	1
0	13376	6.5	1
0	13377	6.5	2
0	13378	6.5	1
0	13379	6.5	1
0	13380	6.5	2
0	13381	6.5	1
0	13509	6.55	1
0	13510	6.55	2
0	13511	6.55	1
0	13625	6.6	1
0	13626	6.6	2
0	13627	6.6	1
0	13628	6.6	1
0	13629	6.6	2
0	13630	6.6	1
0	13748	6.65	1
0	13749	6.65	2
0	13750	6.65	1
0	13887	6.7	1
0	13888	6.7	2
0	13889	6.7	1
0	13890	6.7	1
0	13891	6.7	2
0	13892	6.7	1
0	14007	6.75	1
0	14008	6.75	2
0	14009	6.75	1
0	14131	6.8	1
0	14132	6.8	2
0	14133	6.8	1
0	14134	6.8	1
0	14135	6.8	2
0	14136	6.8	1
0	14249	6.85	1
0	14250	6.85	2
0	14251	6.85	1
0	14368	6.9	1
0	14369	6.9	2
0	14370	6.9	1
0	14371	6.9	1
0	14372	6.9	2
0	14373	6.9	1
0	14516	6.95	1
0	14517	6.95	2
0	14518	6.95	1
0	14627	7	1
0	14628	7	2
0	14629	7	1
0	14630	7	1
0	14631	7	2
0	14632	7	1
0	14791	7.05	1
0	14792	7.05	2
0	14793	7.05	1
0	14908	7.1	1
0	14909	7.1	2
0	14910	7.1	1
0	14911	7.1	1
0	14912	7.1	2
0	14913	7.1	1
0	14999	7.15	1
0	15000	7.15	2
0	15001	7.15	1
0	15140	7.2	1
0	15141	7.2	2
0	15142	7.2	1
0	15143	7.2	1
0	15144	7.2	2
0	15145	7.2	1
0	15270	7.25	1
0	15271	7.25	2
0	15272	7.25	1
0	15399	7.3	1
0	15400	7.3	2
0	15401	7.3	1
0	15402	7.3	1
0	15403	7.3	2
0	15404	7.3	1
0	15547	7.35	1
0	15548	7.35	2
0	15549	7.35	1
0	15653	7.4	1
0	15654	7.4	2
0	15655	7.4	1
0	15656	7.4	1
0	15657	7.4	2
0	15658	7.4	1
0	15786	7.45	1
0	15787	7.45	2
0	15788	7.45	1
0	15905	7.5	1
0	15906	7.5	2
0	15907	7.5	1
0	15908	7.5	1
0	15909	7.5	2
0	15910	7.5	1
0	16003	7.55	1
0	16004	7.55	2
0	16005	7.55	1
0	16116	7.6	1
0	16117	7.6	2
0	16118	7.6	1
0	16119	7.6	1
0	16120	7.6	2
0	16121	7.6	1
0	16206	7.65	1
0	16207	7.65	2
0	16208	7.65	1
0	16290	7.7	1
0	16291	7.7	2
0	16292	7.7	1
0	16293	7.7	1
0	16294	7.7	2
0	16295	7.7	1
0	16393	7.75	1
0	16394	7.75	2
0	16395	7.75	1
0	16485	7.8	1
0	16486	7.8	2
0	16487	7.8	1
0	16488	7.8	1
0	16489	7.8	2
0	16490	7.8	1
0	16569	7.85	1
0	16570	7.85	2
0	16571	7.85	1
0	16650	7.9	1
0	16651	7.9	2
0	16652	7.9	1
0	16653	7.9	1
0	16654	7.9	2
0	16655	7.9	1
0	16743	7.95	1
0	16744	7.95	2
0	16745	7.95	1
0	16830	8	1
0	16831	8	2
0	16832	8	1
0	16833	8	1
0	16834	8	2
0	16835	8	1
0	16920	8.05	1
0	16921	8.05	2
0	16922	8.05	1
0	16995	8.1	1
0	16996	8.1	2
0	16997	8.1	1
0	16998	8.1	1
0	16999	8.1	2
0	17000	8.1	1
0	17088	8.15	1
0	17089	8.15	2
0	17090	8.15	1
0	17159	8.2	1
0	17160	8.2	2
0	17161	8.2	1
0	17162	8.2	1
0	17163	8.2	2
0	17164	8.2	1
0	17246	8.25	1
0	17247	8.25	2
0	17248	8.25	1
0	17730	8.3	1
0	17731	8.3	2
0	17732	8.3	1
0	17733	8.3	1
0	17734	8.3	2
0	17735	8.3	1
0	17833	8.35	1
0	17834	8.35	2
0	17835	8.35	1
0	17924	8.4	1
0	17925	8.4	2
0	17926	8.4	1
0	17927	8.4	1
0	17928	8.4	2
0	17929	8.4	1
0	18036	8.45	1
0	18037	8.45	2
0	18038	8.45	1
0	18135	8.5	1
0	18136	8.5	2
0	18137	8.5	1
0	18138	8.5	1
0	18139	8.5	2
0	18140	8.5	1
0	18225	8.55	1
0	18226	8.55	2
0	18227	8.55	1
0	18324	8.6	1
0	18325	8.6	2
0	18326	8.6	1
0	18327	8.6	1
0	18328	8.6	2
0	18329	8.6	1
0	18438	8.65	1
0	18439	8.65	2
0	18440	8.65	1
0	18527	8.7	1
0	18528	8.7	2
0	18529	8.7	1
0	18530	8.7	1
0	18531	8.7	2
0	18532	8.7	1
0	18637	8.75	1
0	18638	8.75	2
0	18639	8.75	1
0	18720	8.8	1
0	18721	8.8	2
0	18722	8.8	1
0	18723	8.8	1
0	18724	8.8	2
0	18725	8.8	1
0	18808	8.85	1
0	18809	8.85	2
0	18810	8.85	1
0	18899	8.9	1
0	18900	8.9	2
0	18901	8.9	1
0	18902	8.9	1
0	18903	8.9	2
0	18904	8.9	1
0	18997	8.95	1
0	18998	8.95	2
0	18999	8.95	1
0	19096	9	1
0	19097	9	2
0	19098	9	1
0	19099	9	1
0	19100	9	2
0	19101	9	1
0	19189	9.05	1
0	19190	9.05	2
0	19191	9.05	1
0	19285	9.1	1
0	19286	9.1	2
0	19287	9.1	1
0	19288	9.1	1
0	19289	9.1	2
0	19290	9.1	1
0	19393	9.15	1
0	19394	9.15	2
0	19395	9.15	1
0	19474	9.2	1
0	19475	9.2	2
0	19476	9.2	1
0	19477	9.2	1
0	19478	9.2	2
0	19479	9.2	1
0	19582	9.25	1
0	19583	9.25	2
0	19584	9.25	1
0	19673	9.3	1
0	19674	9.3	2
0	19675	9.3	1
0	19676	9.3	1
0	19677	9.3	2
0	19678	9.3	1
0	19751	9.35	1
0	19752	9.35	2
0	19753	9.35	1
0	19850	9.4	1
0	19851	9.4	2
0	19852	9.4	1
0	19853	9.4	1
0	19854	9.4	2
0	19855	9.4	1
0	19935	9.45	1
0	19936	9.45	2
0	19937	9.45	1
0	20034	9.5	1
0	20035	9.5	2
0	20036	9.5	1
0	20037	9.5	1
0	20038	9.5	2
0	20039	9.5	1
0	20134	9.55	1
0	20135	9.55	2
0	20136	9.55	1
0	20223	9.6	1
0	20224	9.6	2
0	20225	9.6	1
0	20226	9.6	1
0	20227	9.6	2
0	20228	9.6	1
0	20326	9.65	1
0	20327	9.65	2
0	20328	9.65	1
0	20392	9.7	1
0	20393	9.7	2
0	20394	9.7	1
0	20395	9.7	1
0	20396	9.7	2
0	20397	9.7	1
0	20500	9.75	1
0	20501	9.75	2
0	20502	9.75	1
0	20584	9.8	1
0	20585	9.8	2
0	20586	9.8	1
0	20587	9.8	1
0	20588	9.8	2
0	20589	9.8	1
0	20674	9.85	1
0	20675	9.85	2
0	20676	9.85	1
0	20773	9.9	1
0	20774	9.9	2
0	20775	9.9	1
0	20776	9.9	1
0	20777	9.9	2
0	20778	9.9	1
0	20873	9.95	1
0	20874	9.95	2
0	20875	9.95	1
0	20962	10	1
0	20963	10	2
0	20964	10	1
0	20965	10	1
0	20966	10	2
0	20967	10	1
0	21079	10.05	1
0	21080	10.05	2
0	21081	10.05	1
0	21160	10.1	1
0	21161	10.1	2
0	21162	10.1	1
0	21163	10.1	1
0	21164	10.1	2
0	21165	10.1	1
0	21268	10.15	1
0	21269	10.15	2
0	21270	10.15	1
0	21361	10.2	1
0	21362	10.2	2
0	21363	10.2	1
0	21364	10.2	1
0	21365	10.2	2
0	21366	10.2	1
0	21473	10.25	1
0	21474	10.25	2
0	21475	10.25	1
0	21567	10.3	1
0	21568	10.3	2
0	21569	10.3	1
0	21570	10.3	1
0	21571	10.3	2
0	21572	10.3	1
0	21657	10.35	1
0	21658	10.35	2
0	21659	10.35	1
0	21758	10.4	1
0	21759	10.4	2
0	21760	10.4	1
0	21761	10.4	1
0	21762	10.4	2
0	21763	10.4	1
0	21858	10.45	1
0	21859	10.45	2
0	21860	10.45	1
0	21947	10.5	1
0	21948	10.5	2
0	21949	10.5	1
0	21950	10.5	1
0	21951	10.5	2
0	21952	10.5	1
0	22035	10.55	1
0	22036	10.55	2
0	22037	10.55	1
0	22119	10.6	1
0	22120	10.6	2
0	22121	10.6	1
0	22122	10.6	1
0	22123	10.6	2
0	22124	10.6	1
0	22224	10.65	1
0	22225	10.65	2
0	22226	10.65	1
0	22303	10.7	1
0	22304	10.7	2
0	22305	10.7	1
0	22306	10.7	1
0	22307	10.7	2
0	22308	10.7	1
0	22393	10.75	1
0	22394	10.75	2
0	22395	10.75	1
0	22487	10.8	1
0	22488	10.8	2
0	22489	10.8	1
0	22490	10.8	1
0	22491	10.8	2
0	22492	10.8	1
0	22587	10.85	1
0	22588	10.85	2
0	22589	10.85	1
0	22671	10.9	1
0	22672	10.9	2
0	22673	10.9	1
0	22674	10.9	1
0	22675	10.9	2
0	22676	10.9	1
0	22779	10.95	1
0	22780	10.95	2
0	22781	10.95	1
0	22860	11	1
0	22861	11	2
0	22862	11	1
0	22863	11	1
0	22864	11	2
0	22865	11	1
0	22951	11.05	1
0	22952	11.05	2
0	22953	11.05	1
0	22993	11.1	1
0	22994	11.1	2
0	22995	11.1	1
0	22996	11.1	1
0	22997	11.1	2
0	22998	11.1	1
0	23032	11.15	1
0	23033	11.15	2
0	23034	11.15	1
0	23059	11.2	1
0	23060	11.2	2
0	23061	11.2	1
0	23062	11.2	1
0	23063	11.2	2
0	23064	11.2	1
0	23095	11.25	1
0	23096	11.25	2
0	23097	11.25	1
0	23122	11.3	1
0	23123	11.3	2
0	23124	11.3	1
0	23125	11.3	1
0	23126	11.3	2
0	23127	11.3	1
0	23158	11.35	1
0	23159	11.35	2
0	23160	11.35	1
0	23185	11.4	1
0	23186	11.4	2
0	23187	11.4	1
0	23188	11.4	1
0	23189	11.4	2
0	23190	11.4	1
0	23221	11.45	1
0	23222	11.45	2
0	23223	11.45	1
0	23248	11.5	1
0	23249	11.5	2
0	23250	11.5	1
0	23251	11.5	1
0	23252	11.5	2
0	23253	11.5	1
0	23284	11.55	1
0	23285	11.55	2
0	23286	11.55	1
0	23311	11.6	1
0	23312	11.6	2
0	23313	11.6	1
0	23314	11.6	1
0	23315	11.6	2
0	23316	11.6	1
0	23798	11.65	1
0	23799	11.65	2
0	23800	11.65	1
0	23887	11.7	1
0	23888	11.7	2
0	23889	11.7	1
0	23890	11.7	1
0	23891	11.7	2
0	23892	11.7	1
0	23975	11.75	1
0	23976	11.75	2
0	23977	11.75	1
0	24080	11.8	1
0	24081	11.8	2
0	24082	11.8	1
0	24083	11.8	1
0	24084	11.8	2
0	24085	11.8	1
0	24183	11.85	1
0	24184	11.85	2
0	24185	11.85	1
0	24282	11.9	1
0	24283	11.9	2
0	24284	11.9	1
0	24285	11.9	1
0	24286	11.9	2
0	24287	11.9	1
0	24372	11.95	1
0	24373	11.95	2
0	24374	11.95	1
0	24906	12	1
0	24907	12	2
0	24908	12	1
0	24909	12	1
0	24910	12	2
0	24911	12	1
0	25044	12.05	1
0	25045	12.05	2
0	25046	12.05	1
0	25153	12.1	1
0	25154	12.1	2
0	25155	12.1	1
0	25156	12.1	1
0	25157	12.1	2
0	25158	12.1	1
0	25279	12.15	1
0	25280	12.15	2
0	25281	12.15	1
0	25393	12.2	1
0	25394	12.2	2
0	25395	12.2	1
0	25396	12.2	1
0	25397	12.2	2
0	25398	12.2	1
0	25531	12.25	1
0	25532	12.25	2
0	25533	12.25	1
0	25645	12.3	1
0	25646	12.3	2
0	25647	12.3	1
0	25648	12.3	1
0	25649	12.3	2
0	25650	12.3	1
0	25763	12.35	1
0	25764	12.35	2
0	25765	12.35	1
0	25908	12.4	1
0	25909	12.4	2
0	25910	12.4	1
0	25911	12.4	1
0	25912	12.4	2
0	25913	12.4	1
0	26029	12.45	1
0	26030	12.45	2
0	26031	12.45	1
0	26163	12.5	1
0	26164	12.5	2
0	26165	12.5	1
0	26166	12.5	1
0	26167	12.5	2
0	26168	12.5	1
0	26295	12.55	1
0	26296	12.55	2
0	26297	12.55	1
0	26409	12.6	1
0	26410	12.6	2
0	26411	12.6	1
0	26412	12.6	1
0	26413	12.6	2
0	26414	12.6	1
0	26539	12.65	1
0	26540	12.65	2
0	26541	12.65	1
0	26668	12.7	1
0	26669	12.7	2
0	26670	12.7	1
0	26671	12.7	1
0	26672	12.7	2
0	26673	12.7	1
0	26806	12.75	1
0	26807	12.75	2
0	26808	12.75	1
0	26912	12.8	1
0	26913	12.8	2
0	26914	12.8	1
0	26915	12.8	1
0	26916	12.8	2
0	26917	12.8	1
0	27050	12.85	1
0	27051	12.85	2
0	27052	12.85	1
0	27189	12.9	1
0	27190	12.9	2
0	27191	12.9	1
0	27192	12.9	1
0	27193	12.9	2
0	27194	12.9	1
0	27314	12.95	1
0	27315	12.95	2
0	27316	12.95	1
0	27443	13	1
0	27444	13	2
0	27445	13	1
0	27446	13	1
0	27447	13	2
0	27448	13	1
0	27571	13.05	1
0	27572	13.05	2
0	27573	13.05	1
0	27682	13.1	1
0	27683	13.1	2
0	27684	13.1	1
0	27685	13.1	1
0	27686	13.1	2
0	27687	13.1	1
0	27830	13.15	1
0	27831	13.15	2
0	27832	13.15	1
0	27951	13.2	1
0	27952	13.2	2
0	27953	13.2	1
0	27954	13.2	1
0	27955	13.2	2
0	27956	13.2	1
0	28074	13.25	1
0	28075	13.25	2
0	28076	13.25	1
0	28190	13.3	1
0	28191	13.3	2
0	28192	13.3	1
0	28193	13.3	1
0	28194	13.3	2
0	28195	13.3	1
0	28328	13.35	1
0	28329	13.35	2
0	28330	13.35	1
0	28447	13.4	1
0	28448	13.4	2
0	28449	13.4	1
0	28450	13.4	1
0	28451	13.4	2
0	28452	13.4	1
0	28572	13.45	1
0	28573	13.45	2
0	28574	13.45	1
0	28701	13.5	1
0	28702	13.5	2
0	28703	13.5	1
0	28704	13.5	1
0	28705	13.5	2
0	28706	13.5	1
0	28826	13.55	1
0	28827	13.55	2
0	28828	13.55	1
0	28955	13.6	1
0	28956	13.6	2
0	28957	13.6	1
0	28958	13.6	1
0	28959	13.6	2
0	28960	13.6	1
0	29093	13.65	1
0	29094	13.65	2
0	29095	13.65	1
0	29217	13.7	1
0	29218	13.7	2
0	29219	13.7	1
0	29220	13.7	1
0	29221	13.7	2
0	29222	13.7	1
0	29352	13.75	1
0	29353	13.75	2
0	29354	13.75	1
0	29493	13.8	1
0	29494	13.8	2
0	29495	13.8	1
0	29496	13.8	1
0	29497	13.8	2
0	29498	13.8	1
0	29616	13.85	1
0	29617	13.85	2
0	29618	13.85	1
0	29740	13.9	1
0	29741	13.9	2
0	29742	13.9	1
0	29743	13.9	1
0	29744	13.9	2
0	29745	13.9	1
0	29880	13.95	1
0	29881	13.95	2
0	29882	13.95	1
0	30013	14	1
0	30014	14	2
0	30015	14	1
0	30016	14	1
0	30017	14	2
0	30018	14	1
0	30161	14.05	1
0	30162	14.05	2
0	30163	14.05	1
0	30282	14.1	1
0	30283	14.1	2
0	30284	14.1	1
0	30285	14.1	1
0	30286	14.1	2
0	30287	14.1	1
0	30415	14.15	1
0	30416	14.15	2
0	30417	14.15	1
0	30546	14.2	1
0	30547	14.2	2
0	30548	14.2	1
0	30549	14.2	1
0	30550	14.2	2
0	30551	14.2	1
0	30677	14.25	1
0	30678	14.25	2
0	30679	14.25	1
0	30799	14.3	1
0	30800	14.3	2
0	30801	14.3	1
0	30802	14.3	1
0	30803	14.3	2
0	30804	14.3	1
0	30929	14.35	1
0	30930	14.35	2
0	30931	14.35	1
0	31061	14.4	1
0	31062	14.4	2
0	31063	14.4	1
0	31064	14.4	1
0	31065	14.4	2
0	31066	14.4	1
0	31170	14.45	1
0	31171	14.45	2
0	31172	14.45	1
0	31256	14.5	1
0	31257	14.5	2
0	31258	14.5	1
0	31259	14.5	1
0	31260	14.5	2
0	31261	14.5	1
0	31349	14.55	1
0	31350	14.55	2
0	31351	14.55	1
0	31425	14.6	1
0	31426	14.6	2
0	31427	14.6	1
0	31428	14.6	1
0	31429	14.6	2
0	31430	14.6	1
0	31523	14.65	1
0	31524	14.65	2
0	31525	14.65	1
0	31617	14.7	1
0	31618	14.7	2
0	31619	14.7	1
0	31620	14.7	1
0	31621	14.7	2
0	31622	14.7	1
0	31714	14.75	1
0	31715	14.75	2
0	31716	14.75	1
0	31801	14.8	1
0	31802	14.8	2
0	31803	14.8	1
0	31804	14.8	1
0	31805	14.8	2
0	31806	14.8	1
0	31879	14.85	1
0	31880	14.85	2
0	31881	14.85	1
0	31963	14.9	1
0	31964	14.9	2
0	31965	14.9	1
0	31966	14.9	1
0	31967	14.9	2
0	31968	14.9	1
0	32059	14.95	1
0	32060	14.95	2
0	32061	14.95	1
0	32145	15	1
0	32146	15	2
0	32147	15	1
0	32148	15	1
0	32149	15	2
0	32150	15	1
0	32226	15.05	1
0	32227	15.05	2
0	32228	15.05	1
0	32313	15.1	1
0	32314	15.1	2
0	32315	15.1	1
0	32316	15.1	1
0	32317	15.1	2
0	32318	15.1	1
0	32403	15.15	1
0	32404	15.15	2
0	32405	15.15	1
0	32475	15.2	1
0	32476	15.2	2
0	32477	15.2	1
0	32478	15.2	1
0	32479	15.2	2
0	32480	15.2	1
0	32960	15.25	1
0	32961	15.25	2
0	32962	15.25	1
0	33049	15.3	1
0	33050	15.3	2
0	33051	15.3	1
0	33052	15.3	1
0	33053	15.3	2
0	33054	15.3	1
0	33152	15.35	1
0	33153	15.35	2
0	33154	15.35	1
0	33247	15.4	1
0	33248	15.4	2
0	33249	15.4	1
0	33250	15.4	1
0	33251	15.4	2
0	33252	15.4	1
0	33345	15.45	1
0	33346	15.45	2
0	33347	15.45	1
0	33444	15.5	1
0	33445	15.5	2
0	33446	15.5	1
0	33447	15.5	1
0	33448	15.5	2
0	33449	15.5	1
0	33521	15.55	1
0	33522	15.55	2
0	33523	15.55	1
0	33619	15.6	1
0	33620	15.6	2
0	33621	15.6	1
0	33622	15.6	1
0	33623	15.6	2
0	33624	15.6	1
0	33719	15.65	1
0	33720	15.65	2
0	33721	15.65	1
0	33808	15.7	1
0	33809	15.7	2
0	33810	15.7	1
0	33811	15.7	1
0	33812	15.7	2
0	33813	15.7	1
0	33918	15.75	1
0	33919	15.75	2
0	33920	15.75	1
0	33999	15.8	1
0	34000	15.8	2
0	34001	15.8	1
0	34002	15.8	1
0	34003	15.8	2
0	34004	15.8	1
0	34107	15.85	1
0	34108	15.85	2
0	34109	15.85	1
0	34198	15.9	1
0	34199	15.9	2
0	34200	15.9	1
0	34201	15.9	1
0	34202	15.9	2
0	34203	15.9	1
0	34291	15.95	1
0	34292	15.95	2
0	34293	15.95	1
0	34390	16	1
0	34391	16	2
0	34392	16	1
0	34393	16	1
0	34394	16	2
0	34395	16	1
0	34465	16.05	1
0	34466	16.05	2
0	34467	16.05	1
0	34549	16.1	1
0	34550	16.1	2
0	34551	16.1	1
0	34552	16.1	1
0	34553	16.1	2
0	34554	16.1	1
0	34657	16.15	1
0	34658	16.15	2
0	34659	16.15	1
0	34738	16.2	1
0	34739	16.2	2
0	34740	16.2	1
0	34741	16.2	1
0	34742	16.2	2
0	34743	16.2	1
0	34836	16.25	1
0	34837	16.25	2
0	34838	16.25	1
0	34922	16.3	1
0	34923	16.3	2
0	34924	16.3	1
0	34925	16.3	1
0	34926	16.3	2
0	34927	16.3	1
0	35015	16.35	1
0	35016	16.35	2
0	35017	16.35	1
0	35114	16.4	1
0	35115	16.4	2
0	35116	16.4	1
0	35117	16.4	1
0	35118	16.4	2
0	35119	16.4	1
0	35204	16.45	1
0	35205	16.45	2
0	35206	16.45	1
0	35303	16.5	1
0	35304	16.5	2
0	35305	16.5	1
0	35306	16.5	1
0	35307	16.5	2
0	35308	16.5	1
0	35398	16.55	1
0	35399	16.55	2
0	35400	16.55	1
0	35482	16.6	1
0	35483	16.6	2
0	35484	16.6	1
0	35485	16.6	1
0	35486	16.6	2
0	35487	16.6	1
0	35590	16.65	1
0	35591	16.65	2
0	35592	16.65	1
0	35671	16.7	1
0	35672	16.7	2
0	35673	16.7	1
0	35674	16.7	1
0	35675	16.7	2
0	35676	16.7	1
0	35779	16.75	1
0	35780	16.75	2
0	35781	16.75	1
0	35870	16.8	1
0	35871	16.8	2
0	35872	16.8	1
0	35873	16.8	1
0	35874	16.8	2
0	35875	16.8	1
0	35968	16.85	1
0	35969	16.85	2
0	35970	16.85	1
0	36067	16.9	1
0	36068	16.9	2
0	36069	16.9	1
0	36070	16.9	1
0	36071	16.9	2
0	36072	16.9	1
0	36152	16.95	1
0	36153	16.95	2
0	36154	16.95	1
0	36240	17	1
0	36241	17	2
0	36242	17	1
0	36243	17	1
0	36244	17	2
0	36245	17	1
0	36348	17.05	1
0	36349	17.05	2
0	36350	17.05	1
0	36424	17.1	1
0	36425	17.1	2
0	36426	17.1	1
0	36427	17.1	1
0	36428	17.1	2
0	36429	17.1	1
0	36548	17.15	1
0	36549	17.15	2
0	36550	17.15	1
0	36634	17.2	1
0	36635	17.2	2
0	36636	17.2	1
0	36637	17.2	1
0	36638	17.2	2
0	36639	17.2	1
0	36732	17.25	1
0	36733	17.25	2
0	36734	17.25	1
0	36833	17.3	1
0	36834	17.3	2
0	36835	17.3	1
0	36836	17.3	1
0	36837	17.3	2
0	36838	17.3	1
0	36923	17.35	1
0	36924	17.35	2
0	36925	17.35	1
0	37022	17.4	1
0	37023	17.4	2
0	37024	17.4	1
0	37025	17.4	1
0	37026	17.4	2
0	37027	17.4	1
0	37122	17.45	1
0	37123	17.45	2
0	37124	17.45	1
0	37211	17.5	1
0	37212	17.5	2
0	37213	17.5	1
0	37214	17.5	1
0	37215	17.5	2
0	37216	17.5	1
0	37319	17.55	1
0	37320	17.55	2
0	37321	17.55	1
0	37400	17.6	1
0	37401	17.6	2
0	37402	17.6	1
0	37403	17.6	1
0	37404	17.6	2
0	37405	17.6	1
0	37508	17.65	1
0	37509	17.65	2
0	37510	17.65	1
0	37607	17.7	1
0	37608	17.7	2
0	37609	17.7	1
0	37610	17.7	1
0	37611	17.7	2
0	37612	17.7	1
0	37697	17.75	1
0	37698	17.75	2
0	37699	17.75	1
0	37796	17.8	1
0	37797	17.8	2
0	37798	17.8	1
0	37799	17.8	1
0	37800	17.8	2
0	37801	17.8	1
0	37896	17.85	1
0	37897	17.85	2
0	37898	17.85	1
0	37985	17.9	1
0	37986	17.9	2
0	37987	17.9	1
0	37988	17.9	1
0	37989	17.9	2
0	37990	17.9	1
0	38093	17.95	1
0	38094	17.95	2
0	38095	17.95	1
0	38174	18	1
0	38175	18	2
0	38176	18	1
0	38177	18	1
0	38178	18	2
0	38179	18	1
0	38228	18.05	1
0	38229	18.05	2
0	38230	18.05	1
0	38264	18.1	1
0	38265	18.1	2
0	38266	18.1	1
0	38267	18.1	1
0	38268	18.1	2
0	38269	18.1	1
0	38300	18.15	1
0	38301	18.15	2
0	38302	18.15	1
0	38327	18.2	1
0	38328	18.2	2
0	38329	18.2	1
0	38330	18.2	1
0	38331	18.2	2
0	38332	18.2	1
0	38363	18.25	1
0	38364	18.25	2
0	38365	18.25	1
0	38390	18.3	1
0	38391	18.3	2
0	38392	18.3	1
0	38393	18.3	1
0	38394	18.3	2
0	38395	18.3	1
0	38426	18.35	1
0	38427	18.35	2
0	38428	18.35	1
0	38453	18.4	1
0	38454	18.4	2
0	38455	18.4	1
0	38456	18.4	1
0	38457	18.4	2
0	38458	18.4	1
0	38489	18.45	1
0	38490	18.45	2
0	38491	18.45	1
0	38516	18.5	1
0	38517	18.5	2
0	38518	18.5	1
0	38519	18.5	1
0	38520	18.5	2
0	38521	18.5	1
0	38552	18.55	1
0	38553	18.55	2
0	38554	18.55	1
0	39023	18.6	1
0	39024	18.6	2
0	39025	18.6	1
0	39026	18.6	1
0	39027	18.6	2
0	39028	18.6	1
0	39113	18.65	1
0	39114	18.65	2
0	39115	18.65	1
0	39212	18.7	1
0	39213	18.7	2
0	39214	18.7	1
0	39215	18.7	1
0	39216	18.7	2
0	39217	18.7	1
0	39336	18.75	1
0	39337	18.75	2
0	39338	18.75	1
0	39417	18.8	1
0	39418	18.8	2
0	39419	18.8	1
0	39420	18.8	1
0	39421	18.8	2
0	39422	18.8	1
0	39520	18.85	1
0	39521	18.85	2
0	39522	18.85	1
0	40036	18.9	1
0	40037	18.9	2
0	40038	18.9	1
0	40039	18.9	1
0	40040	18.9	2
0	40041	18.9	1
0	40159	18.95	1
0	40160	18.95	2
0	40161	18.95	1
0	40298	19	1
0	40299	19	2
0	40300	19	1
0	40301	19	1
0	40302	19	2
0	40303	19	1
0	40428	19.05	1
0	40429	19.05	2
0	40430	19.05	1
0	40557	19.1	1
0	40558	19.1	2
0	40559	19.1	1
0	40560	19.1	1
0	40561	19.1	2
0	40562	19.1	1
0	40697	19.15	1
0	40698	19.15	2
0	40699	19.15	1
0	40798	19.2	1
0	40799	19.2	2
0	40800	19.2	1
0	40801	19.2	1
0	40802	19.2	2
0	40803	19.2	1
0	40939	19.25	1
0	40940	19.25	2
0	40941	19.25	1
0	41074	19.3	1
0	41075	19.3	2
0	41076	19.3	1
0	41077	19.3	1
0	41078	19.3	2
0	41079	19.3	1
0	41212	19.35	1
0	41213	19.35	2
0	41214	19.35	1
0	41326	19.4	1
0	41327	19.4	2
0	41328	19.4	1
0	41329	19.4	1
0	41330	19.4	2
0	41331	19.4	1
0	41458	19.45	1
0	41459	19.45	2
0	41460	19.45	1
0	41597	19.5	1
0	41598	19.5	2
0	41599	19.5	1
0	41600	19.5	1
0	41601	19.5	2
0	41602	19.5	1
0	41727	19.55	1
0	41728	19.55	2
0	41729	19.55	1
0	41849	19.6	1
0	41850	19.6	2
0	41851	19.6	1
0	41852	19.6	1
0	41853	19.6	2
0	41854	19.6	1
0	41997	19.65	1
0	41998	19.65	2
0	41999	19.65	1
0	42108	19.7	1
0	42109	19.7	2
0	42110	19.7	1
0	42111	19.7	1
0	42112	19.7	2
0	42113	19.7	1
0	42249	19.75	1
0	42250	19.75	2
0	42251	19.75	1
0	42378	19.8	1
0	42379	19.8	2
0	42380	19.8	1
0	42381	19.8	1
0	42382	19.8	2
0	42383	19.8	1
0	42503	19.85	1
0	42504	19.85	2
0	42505	19.85	1
0	42642	19.9	1
0	42643	19.9	2
0	42644	19.9	1
0	42645	19.9	1
0	42646	19.9	2
0	42647	19.9	1
0	42772	19.95	1
0	42773	19.95	2
0	42774	19.95	1
0	42901	20	1
0	42902	20	2
0	42903	20	1
0	42904	20	1
0	42905	20	2
0	42906	20	1
0	43039	20.05	1
0	43040	20.05	2
0	43041	20.05	1
0	43153	20.1	1
0	43154	20.1	2
0	43155	20.1	1
0	43156	20.1	1
0	43157	20.1	2
0	43158	20.1	1
0	43301	20.15	1
0	43302	20.15	2
0	43303	20.15	1
0	43407	20.2	1
0	43408	20.2	2
0	43409	20.2	1
0	43410	20.2	1
0	43411	20.2	2
0	43412	20.2	1
0	43538	20.25	1
0	43539	20.25	2
0	43540	20.25	1
0	43677	20.3	1
0	43678	20.3	2
0	43679	20.3	1
0	43680	20.3	1
0	43681	20.3	2
0	43682	20.3	1
0	43799	20.35	1
0	43800	20.35	2
0	43801	20.35	1
0	43933	20.4	1
0	43934	20.4	2
0	43935	20.4	1
0	43936	20.4	1
0	43937	20.4	2
0	43938	20.4	1
0	44063	20.45	1
0	44064	20.45	2
0	44065	20.45	1
0	44192	20.5	1
0	44193	20.5	2
0	44194	20.5	1
0	44195	20.5	1
0	44196	20.5	2
0	44197	20.5	1
0	44340	20.55	1
0	44341	20.55	2
0	44342	20.55	1
0	44461	20.6	1
0	44462	20.6	2
0	44463	20.6	1
0	44464	20.6	1
0	44465	20.6	2
0	44466	20.6	1
0	44599	20.65	1
0	44600	20.65	2
0	44601	20.65	1
0	44723	20.7	1
0	44724	20.7	2
0	44725	20.7	1
0	44726	20.7	1
0	44727	20.7	2
0	44728	20.7	1
0	44855	20.75	1
0	44856	20.75	2
0	44857	20.75	1
0	44994	20.8	1
0	44995	20.8	2
0	44996	20.8	1
0	44997	20.8	1
0	44998	20.8	2
0	44999	20.8	1
0	45124	20.85	1
0	45125	20.85	2
0	45126	20.85	1
0	45267	20.9	1
0	45268	20.9	2
0	45269	20.9	1
0	45270	20.9	1
0	45271	20.9	2
0	45272	20.9	1
0	45405	20.95	1
0	45406	20.95	2
0	45407	20.95	1
0	45526	21	1
0	45527	21	2
0	45528	21	1
0	45529	21	1
0	45530	21	2
0	45531	21	1
0	45669	21.05	1
0	45670	21.05	2
0	45671	21.05	1
0	45790	21.1	1
0	45791	21.1	2
0	45792	21.1	1
0	45793	21.1	1
0	45794	21.1	2
0	45795	21.1	1
0	45928	21.15	1
0	45929	21.15	2
0	45930	21.15	1
0	46067	21.2	1
0	46068	21.2	2
0	46069	21.2	1
0	46070	21.2	1
0	46071	21.2	2
0	46072	21.2	1
0	46187	21.25	1
0	46188	21.25	2
0	46189	21.25	1
0	46321	21.3	1
0	46322	21.3	2
0	46323	21.3	1
0	46324	21.3	1
0	46325	21.3	2
0	46326	21.3	1
0	46450	21.35	1
0	46451	21.35	2
0	46452	21.35	1
0	46537	21.4	1
0	46538	21.4	2
0	46539	21.4	1
0	46540	21.4	1
0	46541	21.4	2
0	46542	21.4	1
0	46645	21.45	1
0	46646	21.45	2
0	46647	21.45	1
0	46729	21.5	1
0	46730	21.5	2
0	46731	21.5	1
0	46732	21.5	1
0	46733	21.5	2
0	46734	21.5	1
0	46804	21.55	1
0	46805	21.55	2
0	46806	21.55	1
0	46903	21.6	1
0	46904	21.6	2
0	46905	21.6	1
0	46906	21.6	1
0	46907	21.6	2
0	46908	21.6	1
0	47000	21.65	1
0	47001	21.65	2
0	47002	21.65	1
0	47087	21.7	1
0	47088	21.7	2
0	47089	21.7	1
0	47090	21.7	1
0	47091	21.7	2
0	47092	21.7	1
0	47165	21.75	1
0	47166	21.75	2
0	47167	21.75	1
0	47249	21.8	1
0	47250	21.8	2
0	47251	21.8	1
0	47252	21.8	1
0	47253	21.8	2
0	47254	21.8	1
0	47345	21.85	1
0	47346	21.85	2
0	47347	21.85	1
0	47429	21.9	1
0	47430	21.9	2
0	47431	21.9	1
0	47432	21.9	1
0	47433	21.9	2
0	47434	21.9	1
0	47512	21.95	1
0	47513	21.95	2
0	47514	21.95	1
0	47599	22	1
0	47600	22	2
0	47601	22	1
0	47602	22	1
0	47603	22	2
0	47604	22	1
0	47689	22.05	1
0	47690	22.05	2
0	47691	22.05	1
0	47761	22.1	1
0	47762	22.1	2
0	47763	22.1	1
0	47764	22.1	1
0	47765	22.1	2
0	47766	22.1	1
0	47848	22.15	1
0	47849	22.15	2
0	47850	22.15	1
0	48338	22.2	1
0	48339	22.2	2
0	48340	22.2	1
0	48341	22.2	1
0	48342	22.2	2
0	48343	22.2	1
0	48438	22.25	1
0	48439	22.25	2
0	48440	22.25	1
0	48526	22.3	1
0	48527	22.3	2
0	48528	22.3	1
0	48529	22.3	1
0	48530	22.3	2
0	48531	22.3	1
0	48629	22.35	1
0	48630	22.35	2
0	48631	22.35	1
0	48710	22.4	1
0	48711	22.4	2
0	48712	22.4	1
0	48713	22.4	1
0	48714	22.4	2
0	48715	22.4	1
0	48818	22.45	1
0	48819	22.45	2
0	48820	22.45	1
0	48918	22.5	1
0	48919	22.5	2
0	48920	22.5	1
0	48921	22.5	1
0	48922	22.5	2
0	48923	22.5	1
0	49008	22.55	1
0	49009	22.55	2
0	49010	22.55	1
0	49107	22.6	1
0	49108	22.6	2
0	49109	22.6	1
0	49110	22.6	1
0	49111	22.6	2
0	49112	22.6	1
0	49179	22.65	1
0	49180	22.65	2
0	49181	22.65	1
0	49263	22.7	1
0	49264	22.7	2
0	49265	22.7	1
0	49266	22.7	1
0	49267	22.7	2
0	49268	22.7	1
0	49371	22.75	1
0	49372	22.75	2
0	49373	22.75	1
0	49452	22.8	1
0	49453	22.8	2
0	49454	22.8	1
0	49455	22.8	1
0	49456	22.8	2
0	49457	22.8	1
0	49560	22.85	1
0	49561	22.85	2
0	49562	22.85	1
0	49646	22.9	1
0	49647	22.9	2
0	49648	22.9	1
0	49649	22.9	1
0	49650	22.9	2
0	49651	22.9	1
0	49744	22.95	1
0	49745	22.95	2
0	49746	22.95	1
0	49843	23	1
0	49844	23	2
0	49845	23	1
0	49846	23	1
0	49847	23	2
0	49848	23	1
0	49918	23.05	1
0	49919	23.05	2
0	49920	23.05	1
0	50012	23.1	1
0	50013	23.1	2
0	50014	23.1	1
0	50015	23.1	1
0	50016	23.1	2
0	50017	23.1	1
0	50112	23.15	1
0	50113	23.15	2
0	50114	23.15	1
0	50201	23.2	1
0	50202	23.2	2
0	50203	23.2	1
0	50204	23.2	1
0	50205	23.2	2
0	50206	23.2	1
0	50309	23.25	1
0	50310	23.25	2
0	50311	23.25	1
0	50390	23.3	1
0	50391	23.3	2
0	50392	23.3	1
0	50393	23.3	1
0	50394	23.3	2
0	50395	23.3	1
0	50498	23.35	1
0	50499	23.35	2
0	50500	23.35	1
0	50597	23.4	1
0	50598	23.4	2
0	50599	23.4	1
0	50600	23.4	1
0	50601	23.4	2
0	50602	23.4	1
0	50682	23.45	1
0	50683	23.45	2
0	50684	23.45	1
0	50766	23.5	1
0	50767	23.5	2
0	50768	23.5	1
0	50769	23.5	1
0	50770	23.5	2
0	50771	23.5	1
0	50866	23.55	1
0	50867	23.55	2
0	50868	23.55	1
0	50955	23.6	1
0	50956	23.6	2
0	50957	23.6	1
0	50958	23.6	1
0	50959	23.6	2
0	50960	23.6	1
0	51063	23.65	1
0	51064	23.65	2
0	51065	23.65	1
0	51144	23.7	1
0	51145	23.7	2
0	51146	23.7	1
0	51147	23.7	1
0	51148	23.7	2
0	51149	23.7	1
0	51252	23.75	1
0	51253	23.75	2
0	51254	23.75	1
0	51328	23.8	1
0	51329	23.8	2
0	51330	23.8	1
0	51331	23.8	1
0	51332	23.8	2
0	51333	23.8	1
0	51426	23.85	1
0	51427	23.85	2
0	51428	23.85	1
0	51524	23.9	1
0	51525	23.9	2
0	51526	23.9	1
0	51527	23.9	1
0	51528	23.9	2
0	51529	23.9	1
0	51599	23.95	1
0	51600	23.95	2
0	51601	23.95	1
0	51698	24	1
0	51699	24	2
0	51700	24	1
0	51701	24	1
0	51702	24	2
0	51703	24	1
0	51800	24.05	1
0	51801	24.05	2
0	51802	24.05	1
0	51903	24.1	1
0	51904	24.1	2
0	51905	24.1	1
0	51906	24.1	1
0	51907	24.1	2
0	51908	24.1	1
0	52011	24.15	1
0	52012	24.15	2
0	52013	24.15	1
0	52102	24.2	1
0	52103	24.2	2
0	52104	24.2	1
0	52105	24.2	1
0	52106	24.2	2
0	52107	24.2	1
0	52197	24.25	1
0	52198	24.25	2
0	52199	24.25	1
0	52291	24.3	1
0	52292	24.3	2
0	52293	24.3	1
0	52294	24.3	1
0	52295	24.3	2
0	52296	24.3	1
0	52381	24.35	1
0	52382	24.35	2
0	52383	24.35	1
0	52460	24.4	1
0	52461	24.4	2
0	52462	24.4	1
0	52463	24.4	1
0	52464	24.4	2
0	52465	24.4	1
0	52560	24.45	1
0	52561	24.45	2
0	52562	24.45	1
0	52649	24.5	1
0	52650	24.5	2
0	52651	24.5	1
0	52652	24.5	1
0	52653	24.5	2
0	52654	24.5	1
0	52752	24.55	1
0	52753	24.55	2
0	52754	24.55	1
0	52818	24.6	1
0	52819	24.6	2
0	52820	24.6	1
0	52821	24.6	1
0	52822	24.6	2
0	52823	24.6	1
0	52921	24.65	1
0	52922	24.65	2
0	52923	24.65	1
0	53012	24.7	1
0	53013	24.7	2
0	53014	24.7	1
0	53015	24.7	1
0	53016	24.7	2
0	53017	24.7	1
0	53110	24.75	1
0	53111	24.75	2
0	53112	24.75	1
0	53204	24.8	1
0	53205	24.8	2
0	53206	24.8	1
0	53207	24.8	1
0	53208	24.8	2
0	53209	24.8	1
0	53279	24.85	1
0	53280	24.85	2
0	53281	24.85	1
0	53378	24.9	1
0	53379	24.9	2
0	53380	24.9	1
0	53381	24.9	1
0	53382	24.9	2
0	53383	24.9	1
0	53459	24.95	1
0	53460	24.95	2
0	53461	24.95	1
0	53501	25	1
0	53502	25	2
0	53503	25	1
0	53504	25	1
0	53505	25	2
0	53506	25	1
0	53537	25.05	1
0	53538	25.05	2
0	53539	25.05	1
0	53564	25.1	1
0	53565	25.1	2
0	53566	25.1	1
0	53567	25.1	1
0	53568	25.1	2
0	53569	25.1	1
0	53600	25.15	1
0	53601	25.15	2
0	53602	25.15	1
0	53627	25.2	1
0	53628	25.2	2
0	53629	25.2	1
0	53630	25.2	1
0	53631	25.2	2
0	53632	25.2	1
0	53663	25.25	1
0	53664	25.25	2
0	53665	25.25	1
0	53690	25.3	1
0	53691	25.3	2
0	53692	25.3	1
0	53693	25.3	1
0	53694	25.3	2
0	53695	25.3	1
0	53726	25.35	1
0	53727	25.35	2
0	53728	25.35	1
0	53753	25.4	1
0	53754	25.4	2
0	53755	25.4	1
0	53756	25.4	1
0	53757	25.4	2
0	53758	25.4	1
0	53789	25.45	1
0	53790	25.45	2
0	53791	25.45	1
0	54267	25.5	1
0	54268	25.5	2
0	54269	25.5	1
0	54270	25.5	1
0	54271	25.5	2
0	54272	25.5	1
0	54365	25.55	1
0	54366	25.55	2
0	54367	25.55	1
0	54449	25.6	1
0	54450	25.6	2
0	54451	25.6	1
0	54452	25.6	1
0	54453	25.6	2
0	54454	25.6	1
0	54543	25.65	1
0	54544	25.65	2
0	54545	25.65	1
0	54655	25.7	1
0	54656	25.7	2
0	54657	25.7	1
0	54658	25.7	1
0	54659	25.7	2
0	54660	25.7	1
0	54763	25.75	1
0	54764	25.75	2
0	54765	25.75	1
0	54844	25.8	1
0	54845	25.8	2
0	54846	25.8	1
0	54847	25.8	1
0	54848	25.8	2
0	54849	25.8	1
0	55387	25.85	1
0	55388	25.85	2
0	55389	25.85	1
0	55516	25.9	1
0	55517	25.9	2
0	55518	25.9	1
0	55519	25.9	1
0	55520	25.9	2
0	55521	25.9	1
0	55654	25.95	1
0	55655	25.95	2
0	55656	25.95	1
0	55785	26	1
0	55786	26	2
0	55787	26	1
0	55788	26	1
0	55789	26	2
0	55790	26	1
0	55903	26.05	1
0	55904	26.05	2
0	55905	26.05	1
0	56022	26.1	1
0	56023	26.1	2
0	56024	26.1	1
0	56025	26.1	1
0	56026	26.1	2
0	56027	26.1	1
0	56135	26.15	1
0	56136	26.15	2
0	56137	26.15	1
0	56264	26.2	1
0	56265	26.2	2
0	56266	26.2	1
0	56267	26.2	1
0	56268	26.2	2
0	56269	26.2	1
0	56404	26.25	1
0	56405	26.25	2
0	56406	26.25	1
0	56523	26.3	1
0	56524	26.3	2
0	56525	26.3	1
0	56526	26.3	1
0	56527	26.3	2
0	56528	26.3	1
0	56671	26.35	1
0	56672	26.35	2
0	56673	26.35	1
0	56789	26.4	1
0	56790	26.4	2
0	56791	26.4	1
0	56792	26.4	1
0	56793	26.4	2
0	56794	26.4	1
0	56927	26.45	1
0	56928	26.45	2
0	56929	26.45	1
0	57043	26.5	1
0	57044	26.5	2
0	57045	26.5	1
0	57046	26.5	1
0	57047	26.5	2
0	57048	26.5	1
0	57174	26.55	1
0	57175	26.55	2
0	57176	26.55	1
0	57296	26.6	1
0	57297	26.6	2
0	57298	26.6	1
0	57299	26.6	1
0	57300	26.6	2
0	57301	26.6	1
0	57419	26.65	1
0	57420	26.65	2
0	57421	26.65	1
0	57548	26.7	1
0	57549	26.7	2
0	57550	26.7	1
0	57551	26.7	1
0	57552	26.7	2
0	57553	26.7	1
0	57696	26.75	1
0	57697	26.75	2
0	57698	26.75	1
0	57807	26.8	1
0	57808	26.8	2
0	57809	26.8	1
0	57810	26.8	1
0	57811	26.8	2
0	57812	26.8	1
0	57945	26.85	1
0	57946	26.85	2
0	57947	26.85	1
0	58064	26.9	1
0	58065	26.9	2
0	58066	26.9	1
0	58067	26.9	1
0	58068	26.9	2
0	58069	26.9	1
0	58192	26.95	1
0	58193	26.95	2
0	58194	26.95	1
0	58331	27	1
0	58332	27	2
0	58333	27	1
0	58334	27	1
0	58335	27	2
0	58336	27	1
0	58461	27.05	1
0	58462	27.05	2
0	58463	27.05	1
0	58575	27.1	1
0	58576	27.1	2
0	58577	27.1	1
0	58578	27.1	1
0	58579	27.1	2
0	58580	27.1	1
0	58708	27.15	1
0	58709	27.15	2
0	58710	27.15	1
0	58830	27.2	1
0	58831	27.2	2
0	58832	27.2	1
0	58833	27.2	1
0	58834	27.2	2
0	58835	27.2	1
0	58970	27.25	1
0	58971	27.25	2
0	58972	27.25	1
0	59084	27.3	1
0	59085	27.3	2
0	59086	27.3	1
0	59087	27.3	1
0	59088	27.3	2
0	59089	27.3	1
0	59222	27.35	1
0	59223	27.35	2
0	59224	27.35	1
0	59353	27.4	1
0	59354	27.4	2
0	59355	27.4	1
0	59356	27.4	1
0	59357	27.4	2
0	59358	27.4	1
0	59476	27.45	1
0	59477	27.45	2
0	59478	27.45	1
0	59605	27.5	1
0	59606	27.5	2
0	59607	27.5	1
0	59608	27.5	1
0	59609	27.5	2
0	59610	27.5	1
0	59723	27.55	1
0	59724	27.55	2
0	59725	27.55	1
0	59844	27.6	1
0	59845	27.6	2
0	59846	27.6	1
0	59847	27.6	1
0	59848	27.6	2
0	59849	27.6	1
0	59994	27.65	1
0	59995	27.65	2
0	59996	27.65	1
0	60115	27.7	1
0	60116	27.7	2
0	60117	27.7	1
0	60118	27.7	1
0	60119	27.7	2
0	60120	27.7	1
0	60243	27.75	1
0	60244	27.75	2
0	60245	27.75	1
0	60374	27.8	1
0	60375	27.8	2
0	60376	27.8	1
0	60377	27.8	1
0	60378	27.8	2
0	60379	27.8	1
0	60516	27.85	1
0	60517	27.85	2
0	60518	27.85	1
0	60655	27.9	1
0	60656	27.9	2
0	60657	27.9	1
0	60658	27.9	1
0	60659	27.9	2
0	60660	27.9	1
0	60785	27.95	1
0	60786	27.95	2
0	60787	27.95	1
0	60916	28	1
0	60917	28	2
0	60918	28	1
0	60919	28	1
0	60920	28	2
0	60921	28	1
0	61056	28.05	1
0	61057	28.05	2
0	61058	28.05	1
0	61185	28.1	1
0	61186	28.1	2
0	61187	28.1	1
0	61188	28.1	1
0	61189	28.1	2
0	61190	28.1	1
0	61323	28.15	1
0	61324	28.15	2
0	61325	28.15	1
0	61444	28.2	1
0	61445	28.2	2
0	61446	28.2	1
0	61447	28.2	1
0	61448	28.2	2
0	61449	28.2	1
0	61585	28.25	1
0	61586	28.25	2
0	61587	28.25	1
0	61685	28.3	1
0	61686	28.3	2
0	61687	28.3	1
0	61688	28.3	1
0	61689	28.3	2
0	61690	28.3	1
0	61780	28.35	1
0	61781	28.35	2
0	61782	28.35	1
0	61879	28.4	1
0	61880	28.4	2
0	61881	28.4	1
0	61882	28.4	1
0	61883	28.4	2
0	61884	28.4	1
0	61979	28.45	1
0	61980	28.45	2
0	61981	28.45	1
0	62053	28.5	1
0	62054	28.5	2
0	62055	28.5	1
0	62056	28.5	1
0	62057	28.5	2
0	62058	28.5	1
0	62161	28.55	1
0	62162	28.55	2
0	62163	28.55	1
0	62254	28.6	1
0	62255	28.6	2
0	62256	28.6	1
0	62257	28.6	1
0	62258	28.6	2
0	62259	28.6	1
0	62350	28.65	1
0	62351	28.65	2
0	62352	28.65	1
0	62419	28.7	1
0	62420	28.7	2
0	62421	28.7	1
0	62422	28.7	1
0	62423	28.7	2
0	62424	28.7	1
0	62512	28.75	1
0	62513	28.75	2
0	62514	28.75	1
0	62599	28.8	1
0	62600	28.8	2
0	62601	28.8	1
0	62602	28.8	1
0	62603	28.8	2
0	62604	28.8	1
0	62682	28.85	1
0	62683	28.85	2
0	62684	28.85	1
0	62766	28.9	1
0	62767	28.9	2
0	62768	28.9	1
0	62769	28.9	1
0	62770	28.9	2
0	62771	28.9	1
0	62862	28.95	1
0	62863	28.95	2
0	62864	28.95	1
0	62937	29	1
0	62938	29	2
0	62939	29	1
0	62940	29	1
0	62941	29	2
0	62942	29	1
0	63024	29.05	1
0	63025	29.05	2
0	63026	29.05	1
0	63500	29.1	1
0	63501	29.1	2
0	63502	29.1	1
0	63503	29.1	1
0	63504	29.1	2
0	63505	29.1	1
0	63590	29.15	1
0	63591	29.15	2
0	63592	29.15	1
0	63689	29.2	1
0	63690	29.2	2
0	63691	29.2	1
0	63692	29.2	1
0	63693	29.2	2
0	63694	29.2	1
0	63806	29.25	1
0	63807	29.25	2
0	63808	29.25	1
0	63887	29.3	1
0	63888	29.3	2
0	63889	29.3	1
0	63890	29.3	1
0	63891	29.3	2
0	63892	29.3	1
0	63995	29.35	1
0	63996	29.35	2
0	63997	29.35	1
0	64088	29.4	1
0	64089	29.4	2
0	64090	29.4	1
0	64091	29.4	1
0	64092	29.4	2
0	64093	29.4	1
0	64200	29.45	1
0	64201	29.45	2
0	64202	29.45	1
0	64299	29.5	1
0	64300	29.5	2
0	64301	29.5	1
0	64302	29.5	1
0	64303	29.5	2
0	64304	29.5	1
0	64389	29.55	1
0	64390	29.55	2
0	64391	29.55	1
0	64490	29.6	1
0	64491	29.6	2
0	64492	29.6	1
0	64493	29.6	1
0	64494	29.6	2
0	64495	29.6	1
0	64590	29.65	1
0	64591	29.65	2
0	64592	29.65	1
0	64679	29.7	1
0	64680	29.7	2
0	64681	29.7	1
0	64682	29.7	1
0	64683	29.7	2
0	64684	29.7	1
0	64787	29.75	1
0	64788	29.75	2
0	64789	29.75	1
0	64868	29.8	1
0	64869	29.8	2
0	64870	29.8	1
0	64871	29.8	1
0	64872	29.8	2
0	64873	29.8	1
0	64961	29.85	1
0	64962	29.85	2
0	64963	29.85	1
0	65052	29.9	1
0	65053	29.9	2
0	65054	29.9	1
0	65055	29.9	1
0	65056	29.9	2
0	65057	29.9	1
0	65135	29.95	1
0	65136	29.95	2
0	65137	29.95	1
0	65234	30	1
0	65235	30	2
0	65236	30	1
0	65237	30	1
0	65238	30	2
0	65239	30	1
0	65312	30.05	1
0	65313	30.05	2
0	65314	30.05	1
0	65408	30.1	1
0	65409	30.1	2
0	65410	30.1	1
0	65411	30.1	1
0	65412	30.1	2
0	65413	30.1	1
0	65516	30.15	1
0	65517	30.15	2
0	65518	30.15	1
0	65597	30.2	1
0	65598	30.2	2
0	65599	30.2	1
0	65600	30.2	1
0	65601	30.2	2
0	65602	30.2	1
0	65705	30.25	1
0	65706	30.25	2
0	65707	30.25	1
0	65791	30.3	1
0	65792	30.3	2
0	65793	30.3	1
0	65794	30.3	1
0	65795	30.3	2
0	65796	30.3	1
0	65889	30.35	1
0	65890	30.35	2
0	65891	30.35	1
0	65983	30.4	1
0	65984	30.4	2
0	65985	30.4	1
0	65986	30.4	1
0	65987	30.4	2
0	65988	30.4	1
0	66073	30.45	1
0	66074	30.45	2
0	66075	30.45	1
0	66152	30.5	1
0	66153	30.5	2
0	66154	30.5	1
0	66155	30.5	1
0	66156	30.5	2
0	66157	30.5	1
0	66252	30.55	1
0	66253	30.55	2
0	66254	30.55	1
0	66336	30.6	1
0	66337	30.6	2
0	66338	30.6	1
0	66339	30.6	1
0	66340	30.6	2
0	66341	30.6	1
0	66444	30.65	1
0	66445	30.65	2
0	66446	30.65	1
0	66525	30.7	1
0	66526	30.7	2
0	66527	30.7	1
0	66528	30.7	1
0	66529	30.7	2
0	66530	30.7	1
0	66633	30.75	1
0	66634	30.75	2
0	66635	30.75	1
0	66717	30.8	1
0	66718	30.8	2
0	66719	30.8	1
0	66720	30.8	1
0	66721	30.8	2
0	66722	30.8	1
0	66821	30.85	1
0	66822	30.85	2
0	66823	30.85	1
0	66920	30.9	1
0	66921	30.9	2
0	66922	30.9	1
0	66923	30.9	1
0	66924	30.9	2
0	66925	30.9	1
0	67005	30.95	1
0	67006	30.95	2
0	67007	30.95	1
0	67091	31	1
0	67092	31	2
0	67093	31	1
0	67094	31	1
0	67095	31	2
0	67096	31	1
0	67213	31.05	1
0	67214	31.05	2
0	67215	31.05	1
0	67294	31.1	1
0	67295	31.1	2
0	67296	31.1	1
0	67297	31.1	1
0	67298	31.1	2
0	67299	31.1	1
0	67402	31.15	1
0	67403	31.15	2
0	67404	31.15	1
0	67495	31.2	1
0	67496	31.2	2
0	67497	31.2	1
0	67498	31.2	1
0	67499	31.2	2
0	67500	31.2	1
0	67593	31.25	1
0	67594	31.25	2
0	67595	31.25	1
0	67692	31.3	1
0	67693	31.3	2
0	67694	31.3	1
0	67695	31.3	1
0	67696	31.3	2
0	67697	31.3	1
0	67782	31.35	1
0	67783	31.35	2
0	67784	31.35	1
0	67881	31.4	1
0	67882	31.4	2
0	67883	31.4	1
0	67884	31.4	1
0	67885	31.4	2
0	67886	31.4	1
0	67976	31.45	1
0	67977	31.45	2
0	67978	31.45	1
0	68050	31.5	1
0	68051	31.5	2
0	68052	31.5	1
0	68053	31.5	1
0	68054	31.5	2
0	68055	31.5	1
0	68158	31.55	1
0	68159	31.55	2
0	68160	31.55	1
0	68242	31.6	1
0	68243	31.6	2
0	68244	31.6	1
0	68245	31.6	1
0	68246	31.6	2
0	68247	31.6	1
0	68332	31.65	1
0	68333	31.65	2
0	68334	31.65	1
0	68431	31.7	1
0	68432	31.7	2
0	68433	31.7	1
0	68434	31.7	1
0	68435	31.7	2
0	68436	31.7	1
0	68521	31.75	1
0	68522	31.75	2
0	68523	31.75	1
0	68600	31.8	1
0	68601	31.8	2
0	68602	31.8	1
0	68603	31.8	1
0	68604	31.8	2
0	68605	31.8	1
0	68700	31.85	1
0	68701	31.85	2
0	68702	31.85	1
0	68750	31.9	1
0	68751	31.9	2
0	68752	31.9	1
0	68753	31.9	1
0	68754	31.9	2
0	68755	31.9	1
0	68795	31.95	1
0	68796	31.95	2
0	68797	31.95	1
0	68822	32	1
0	68823	32	2
0	68824	32	1
0	68825	32	1
0	68826	32	2
0	68827	32	1
0	68858	32.05	1
0	68859	32.05	2
0	68860	32.05	1
0	68885	32.1	1
0	68886	32.1	2
0	68887	32.1	1
0	68888	32.1	1
0	68889	32.1	2
0	68890	32.1	1
0	68921	32.15	1
0	68922	32.15	2
0	68923	32.15	1
0	68948	32.2	1
0	68949	32.2	2
0	68950	32.2	1
0	68951	32.2	1
0	68952	32.2	2
0	68953	32.2	1
0	68984	32.25	1
0	68985	32.25	2
0	68986	32.25	1
0	69011	32.3	1
0	69012	32.3	2
0	69013	32.3	1
0	69014	32.3	1
0	69015	32.3	2
0	69016	32.3	1
0	69047	32.35	1
0	69048	32.35	2
0	69049	32.35	1
0	69525	32.4	1
0	69526	32.4	2
0	69527	32.4	1
0	69528	32.4	1
0	69529	32.4	2
0	69530	32.4	1
0	69618	32.45	1
0	69619	32.45	2
0	69620	32.45	1
0	69717	32.5	1
0	69718	32.5	2
0	69719	32.5	1
0	69720	32.5	1
0	69721	32.5	2
0	69722	32.5	1
0	69826	32.55	1
0	69827	32.55	2
0	69828	32.55	1
0	69915	32.6	1
0	69916	32.6	2
0	69917	32.6	1
0	69918	32.6	1
0	69919	32.6	2
0	69920	32.6	1
0	70041	32.65	1
0	70042	32.65	2
0	70043	32.65	1
0	70122	32.7	1
0	70123	32.7	2
0	70124	32.7	1
0	70125	32.7	1
0	70126	32.7	2
0	70127	32.7	1
0	70225	32.75	1
0	70226	32.75	2
0	70227	32.75	1
0	70746	32.8	1
0	70747	32.8	2
0	70748	32.8	1
0	70749	32.8	1
0	70750	32.8	2
0	70751	32.8	1
0	70869	32.85	1
0	70870	32.85	2
0	70871	32.85	1
0	71008	32.9	1
0	71009	32.9	2
0	71010	32.9	1
0	71011	32.9	1
0	71012	32.9	2
0	71013	32.9	1
0	71140	32.95	1
0	71141	32.95	2
0	71142	32.95	1
0	71269	33	1
0	71270	33	2
0	71271	33	1
0	71272	33	1
0	71273	33	2
0	71274	33	1
0	71402	33.05	1
0	71403	33.05	2
0	71404	33.05	1
0	71508	33.1	1
0	71509	33.1	2
0	71510	33.1	1
0	71511	33.1	1
0	71512	33.1	2
0	71513	33.1	1
0	71656	33.15	1
0	71657	33.15	2
0	71658	33.15	1
0	71791	33.2	1
0	71792	33.2	2
0	71793	33.2	1
0	71794	33.2	1
0	71795	33.2	2
0	71796	33.2	1
0	71929	33.25	1
0	71930	33.25	2
0	71931	33.25	1
0	72068	33.3	1
0	72069	33.3	2
0	72070	33.3	1
0	72071	33.3	1
0	72072	33.3	2
0	72073	33.3	1
0	72185	33.35	1
0	72186	33.35	2
0	72187	33.35	1
0	72317	33.4	1
0	72318	33.4	2
0	72319	33.4	1
0	72320	33.4	1
0	72321	33.4	2
0	72322	33.4	1
0	72450	33.45	1
0	72451	33.45	2
0	72452	33.45	1
0	72569	33.5	1
0	72570	33.5	2
0	72571	33.5	1
0	72572	33.5	1
0	72573	33.5	2
0	72574	33.5	1
0	72702	33.55	1
0	72703	33.55	2
0	72704	33.55	1
0	72813	33.6	1
0	72814	33.6	2
0	72815	33.6	1
0	72816	33.6	1
0	72817	33.6	2
0	72818	33.6	1
0	72961	33.65	1
0	72962	33.65	2
0	72963	33.65	1
0	73085	33.7	1
0	73086	33.7	2
0	73087	33.7	1
0	73088	33.7	1
0	73089	33.7	2
0	73090	33.7	1
0	73190	33.75	1
0	73191	33.75	2
0	73192	33.75	1
0	73309	33.8	1
0	73310	33.8	2
0	73311	33.8	1
0	73312	33.8	1
0	73313	33.8	2
0	73314	33.8	1
0	73439	33.85	1
0	73440	33.85	2
0	73441	33.85	1
0	73568	33.9	1
0	73569	33.9	2
0	73570	33.9	1
0	73571	33.9	1
0	73572	33.9	2
0	73573	33.9	1
0	73716	33.95	1
0	73717	33.95	2
0	73718	33.95	1
0	73827	34	1
0	73828	34	2
0	73829	34	1
0	73830	34	1
0	73831	34	2
0	73832	34	1
0	73968	34.05	1
0	73969	34.05	2
0	73970	34.05	1
0	74099	34.1	1
0	74100	34.1	2
0	74101	34.1	1
0	74102	34.1	1
0	74103	34.1	2
0	74104	34.1	1
0	74209	34.15	1
0	74210	34.15	2
0	74211	34.15	1
0	74348	34.2	1
0	74349	34.2	2
0	74350	34.2	1
0	74351	34.2	1
0	74352	34.2	2
0	74353	34.2	1
0	74468	34.25	1
0	74469	34.25	2
0	74470	34.25	1
0	74593	34.3	1
0	74594	34.3	2
0	74595	34.3	1
0	74596	34.3	1
0	74597	34.3	2
0	74598	34.3	1
0	74714	34.35	1
0	74715	34.35	2
0	74716	34.35	1
0	74833	34.4	1
0	74834	34.4	2
0	74835	34.4	1
0	74836	34.4	1
0	74837	34.4	2
0	74838	34.4	1
0	74981	34.45	1
0	74982	34.45	2
0	74983	34.45	1
0	75102	34.5	1
0	75103	34.5	2
0	75104	34.5	1
0	75105	34.5	1
0	75106	34.5	2
0	75107	34.5	1
0	75242	34.55	1
0	75243	34.55	2
0	75244	34.55	1
0	75381	34.6	1
0	75382	34.6	2
0	75383	34.6	1
0	75384	34.6	1
0	75385	34.6	2
0	75386	34.6	1
0	75501	34.65	1
0	75502	34.65	2
0	75503	34.65	1
0	75625	34.7	1
0	75626	34.7	2
0	75627	34.7	1
0	75628	34.7	1
0	75629	34.7	2
0	75630	34.7	1
0	75755	34.75	1
0	75756	34.75	2
0	75757	34.75	1
0	75898	34.8	1
0	75899	34.8	2
0	75900	34.8	1
0	75901	34.8	1
0	75902	34.8	2
0	75903	34.8	1
0	76046	34.85	1
0	76047	34.85	2
0	76048	34.85	1
0	76157	34.9	1
0	76158	34.9	2
0	76159	34.9	1
0	76160	34.9	1
0	76161	34.9	2
0	76162	34.9	1
0	76307	34.95	1
0	76308	34.95	2
0	76309	34.95	1
0	76431	35	1
0	76432	35	2
0	76433	35	1
0	76434	35	1
0	76435	35	2
0	76436	35	1
0	76559	35.05	1
0	76560	35.05	2
0	76561	35.05	1
0	76683	35.1	1
0	76684	35.1	2
0	76685	35.1	1
0	76686	35.1	1
0	76687	35.1	2
0	76688	35.1	1
0	76806	35.15	1
0	76807	35.15	2
0	76808	35.15	1
0	76911	35.2	1
0	76912	35.2	2
0	76913	35.2	1
0	76914	35.2	1
0	76915	35.2	2
0	76916	35.2	1
0	77019	35.25	1
0	77020	35.25	2
0	77021	35.25	1
0	77100	35.3	1
0	77101	35.3	2
0	77102	35.3	1
0	77103	35.3	1
0	77104	35.3	2
0	77105	35.3	1
0	77208	35.35	1
0	77209	35.35	2
0	77210	35.35	1
0	77294	35.4	1
0	77295	35.4	2
0	77296	35.4	1
0	77297	35.4	1
0	77298	35.4	2
0	77299	35.4	1
0	77377	35.45	1
0	77378	35.45	2
0	77379	35.45	1
0	77476	35.5	1
0	77477	35.5	2
0	77478	35.5	1
0	77479	35.5	1
0	77480	35.5	2
0	77481	35.5	1
0	77578	35.55	1
0	77579	35.55	2
0	77580	35.55	1
0	77665	35.6	1
0	77666	35.6	2
0	77667	35.6	1
0	77668	35.6	1
0	77669	35.6	2
0	77670	35.6	1
0	77749	35.65	1
0	77750	35.65	2
0	77751	35.65	1
0	77827	35.7	1
0	77828	35.7	2
0	77829	35.7	1
0	77830	35.7	1
0	77831	35.7	2
0	77832	35.7	1
0	77925	35.75	1
0	77926	35.75	2
0	77927	35.75	1
0	78009	35.8	1
0	78010	35.8	2
0	78011	35.8	1
0	78012	35.8	1
0	78013	35.8	2
0	78014	35.8	1
0	78090	35.85	1
0	78091	35.85	2
0	78092	35.85	1
0	78177	35.9	1
0	78178	35.9	2
0	78179	35.9	1
0	78180	35.9	1
0	78181	35.9	2
0	78182	35.9	1
0	78267	35.95	1
0	78268	35.95	2
0	78269	35.95	1
0	78339	36	1
0	78340	36	2
0	78341	36	1
0	78342	36	1
0	78343	36	2
0	78344	36	1
0	78829	36.05	1
0	78830	36.05	2
0	78831	36.05	1
0	78910	36.1	1
0	78911	36.1	2
0	78912	36.1	1
0	78913	36.1	1
0	78914	36.1	2
0	78915	36.1	1
0	79018	36.15	1
0	79019	36.15	2
0	79020	36.15	1
0	79131	36.2	1
0	79132	36.2	2
0	79133	36.2	1
0	79134	36.2	1
0	79135	36.2	2
0	79136	36.2	1
0	79221	36.25	1
0	79222	36.25	2
0	79223	36.25	1
0	79320	36.3	1
0	79321	36.3	2
0	79322	36.3	1
0	79323	36.3	1
0	79324	36.3	2
0	79325	36.3	1
0	79422	36.35	1
0	79423	36.35	2
0	79424	36.35	1
0	79525	36.4	1
0	79526	36.4	2
0	79527	36.4	1
0	79528	36.4	1
0	79529	36.4	2
0	79530	36.4	1
0	79633	36.45	1
0	79634	36.45	2
0	79635	36.45	1
0	79709	36.5	1
0	79710	36.5	2
0	79711	36.5	1
0	79712	36.5	1
0	79713	36.5	2
0	79714	36.5	1
0	79819	36.55	1
0	79820	36.55	2
0	79821	36.55	1
0	79910	36.6	1
0	79911	36.6	2
0	79912	36.6	1
0	79913	36.6	1
0	79914	36.6	2
0	79915	36.6	1
0	79988	36.65	1
0	79989	36.65	2
0	79990	36.65	1
0	80087	36.7	1
0	80088	36.7	2
0	80089	36.7	1
0	80090	36.7	1
0	80091	36.7	2
0	80092	36.7	1
0	80177	36.75	1
0	80178	36.75	2
0	80179	36.75	1
0	80261	36.8	1
0	80262	36.8	2
0	80263	36.8	1
0	80264	36.8	1
0	80265	36.8	2
0	80266	36.8	1
0	80361	36.85	1
0	80362	36.85	2
0	80363	36.85	1
0	80450	36.9	1
0	80451	36.9	2
0	80452	36.9	1
0	80453	36.9	1
0	80454	36.9	2
0	80455	36.9	1
0	80558	36.95	1
0	80559	36.95	2
0	80560	36.95	1
0	80634	37	1
0	80635	37	2
0	80636	37	1
0	80637	37	1
0	80638	37	2
0	80639	37	1
0	80732	37.05	1
0	80733	37.05	2
0	80734	37.05	1
0	80831	37.1	1
0	80832	37.1	2
0	80833	37.1	1
0	80834	37.1	1
0	80835	37.1	2
0	80836	37.1	1
0	80921	37.15	1
0	80922	37.15	2
0	80923	37.15	1
0	81020	37.2	1
0	81021	37.2	2
0	81022	37.2	1
0	81023	37.2	1
0	81024	37.2	2
0	81025	37.2	1
0	81098	37.25	1
0	81099	37.25	2
0	81100	37.25	1
0	81179	37.3	1
0	81180	37.3	2
0	81181	37.3	1
0	81182	37.3	1
0	81183	37.3	2
0	81184	37.3	1
0	81282	37.35	1
0	81283	37.35	2
0	81284	37.35	1
0	81363	37.4	1
0	81364	37.4	2
0	81365	37.4	1
0	81366	37.4	1
0	81367	37.4	2
0	81368	37.4	1
0	81471	37.45	1
0	81472	37.45	2
0	81473	37.45	1
0	81562	37.5	1
0	81563	37.5	2
0	81564	37.5	1
0	81565	37.5	1
0	81566	37.5	2
0	81567	37.5	1
0	81645	37.55	1
0	81646	37.55	2
0	81647	37.55	1
0	81744	37.6	1
0	81745	37.6	2
0	81746	37.6	1
0	81747	37.6	1
0	81748	37.6	2
0	81749	37.6	1
0	81834	37.65	1
0	81835	37.65	2
0	81836	37.65	1
0	81933	37.7	1
0	81934	37.7	2
0	81935	37.7	1
0	81936	37.7	1
0	81937	37.7	2
0	81938	37.7	1
0	82041	37.75	1
0	82042	37.75	2
0	82043	37.75	1
0	82136	37.8	1
0	82137	37.8	2
0	82138	37.8	1
0	82139	37.8	1
0	82140	37.8	2
0	82141	37.8	1
0	82244	37.85	1
0	82245	37.85	2
0	82246	37.85	1
0	82320	37.9	1
0	82321	37.9	2
0	82322	37.9	1
0	82323	37.9	1
0	82324	37.9	2
0	82325	37.9	1
0	82420	37.95	1
0	82421	37.95	2
0	82422	37.95	1
0	82533	38	1
0	82534	38	2
0	82535	38	1
0	82536	38	1
0	82537	38	2
0	82538	38	1
0	82623	38.05	1
0	82624	38.05	2
0	82625	38.05	1
0	82707	38.1	1
0	82708	38.1	2
0	82709	38.1	1
0	82710	38.1	1
0	82711	38.1	2
0	82712	38.1	1
0	82809	38.15	1
0	82810	38.15	2
0	82811	38.15	1
0	82893	38.2	1
0	82894	38.2	2
0	82895	38.2	1
0	82896	38.2	1
0	82897	38.2	2
0	82898	38.2	1
0	83001	38.25	1
0	83002	38.25	2
0	83003	38.25	1
0	83082	38.3	1
0	83083	38.3	2
0	83084	38.3	1
0	83085	38.3	1
0	83086	38.3	2
0	83087	38.3	1
0	83190	38.35	1
0	83191	38.35	2
0	83192	38.35	1
0	83281	38.4	1
0	83282	38.4	2
0	83283	38.4	1
0	83284	38.4	1
0	83285	38.4	2
0	83286	38.4	1
0	83364	38.45	1
0	83365	38.45	2
0	83366	38.45	1
0	83448	38.5	1
0	83449	38.5	2
0	83450	38.5	1
0	83451	38.5	1
0	83452	38.5	2
0	83453	38.5	1
0	83533	38.55	1
0	83534	38.55	2
0	83535	38.55	1
0	83622	38.6	1
0	83623	38.6	2
0	83624	38.6	1
0	83625	38.6	1
0	83626	38.6	2
0	83627	38.6	1
0	83725	38.65	1
0	83726	38.65	2
0	83727	38.65	1
0	83806	38.7	1
0	83807	38.7	2
0	83808	38.7	1
0	83809	38.7	1
0	83810	38.7	2
0	83811	38.7	1
0	83914	38.75	1
0	83915	38.75	2
0	83916	38.75	1
0	84005	38.8	1
0	84006	38.8	2
0	84007	38.8	1
0	84008	38.8	1
0	84009	38.8	2
0	84010	38.8	1
0	84064	38.85	1
0	84065	38.85	2
0	84066	38.85	1
0	84100	38.9	1
0	84101	38.9	2
0	84102	38.9	1
0	84103	38.9	1
0	84104	38.9	2
0	84105	38.9	1
0	84136	38.95	1
0	84137	38.95	2
0	84138	38.95	1
0	84163	39	1
0	84164	39	2
0	84165	39	1
0	84166	39	1
0	84167	39	2
0	84168	39	1
0	84199	39.05	1
0	84200	39.05	2
0	84201	39.05	1
0	84226	39.1	1
0	84227	39.1	2
0	84228	39.1	1
0	84229	39.1	1
0	84230	39.1	2
0	84231	39.1	1
0	84262	39.15	1
0	84263	39.15	2
0	84264	39.15	1
0	84289	39.2	1
0	84290	39.2	2
0	84291	39.2	1
0	84292	39.2	1
0	84293	39.2	2
0	84294	39.2	1
0	84325	39.25	1
0	84326	39.25	2
0	84327	39.25	1
0	84352	39.3	1
0	84353	39.3	2
0	84354	39.3	1
0	84355	39.3	1
0	84356	39.3	2
0	84357	39.3	1
0	84388	39.35	1
0	84389	39.35	2
0	84390	39.35	1
0	84866	39.4	1
0	84867	39.4	2
0	84868	39.4	1
0	84869	39.4	1
0	84870	39.4	2
0	84871	39.4	1
0	84959	39.45	1
0	84960	39.45	2
0	84961	39.45	1
0	85053	39.5	1
0	85054	39.5	2
0	85055	39.5	1
0	85056	39.5	1
0	85057	39.5	2
0	85058	39.5	1
0	85167	39.55	1
0	85168	39.55	2
0	85169	39.55	1
0	85279	39.6	1
0	85280	39.6	2
0	85281	39.6	1
0	85282	39.6	1
0	85283	39.6	2
0	85284	39.6	1
0	85372	39.65	1
0	85373	39.65	2
0	85374	39.65	1
0	85438	39.7	1
0	85439	39.7	2
0	85440	39.7	1
0	85441	39.7	1
0	85442	39.7	2
0	85443	39.7	1
0	85981	39.75	1
0	85982	39.75	2
0	85983	39.75	1
0	86095	39.8	1
0	86096	39.8	2
0	86097	39.8	1
0	86098	39.8	1
0	86099	39.8	2
0	86100	39.8	1
0	86233	39.85	1
0	86234	39.85	2
0	86235	39.85	1
0	86364	39.9	1
0	86365	39.9	2
0	86366	39.9	1
0	86367	39.9	1
0	86368	39.9	2
0	86369	39.9	1
0	86487	39.95	1
0	86488	39.95	2
0	86489	39.95	1
0	86621	40	1
0	86622	40	2
0	86623	40	1
0	86624	40	1
0	86625	40	2
0	86626	40	1
0	86736	40.05	1
0	86737	40.05	2
0	86738	40.05	1
0	86860	40.1	1
0	86861	40.1	2
0	86862	40.1	1
0	86863	40.1	1
0	86864	40.1	2
0	86865	40.1	1
0	87007	40.15	1
0	87008	40.15	2
0	87009	40.15	1
0	87118	40.2	1
0	87119	40.2	2
0	87120	40.2	1
0	87121	40.2	1
0	87122	40.2	2
0	87123	40.2	1
0	87259	40.25	1
0	87260	40.25	2
0	87261	40.25	1
0	87382	40.3	1
0	87383	40.3	2
0	87384	40.3	1
0	87385	40.3	1
0	87386	40.3	2
0	87387	40.3	1
0	87520	40.35	1
0	87521	40.35	2
0	87522	40.35	1
0	87644	40.4	1
0	87645	40.4	2
0	87646	40.4	1
0	87647	40.4	1
0	87648	40.4	2
0	87649	40.4	1
0	87782	40.45	1
0	87783	40.45	2
0	87784	40.45	1
0	87911	40.5	1
0	87912	40.5	2
0	87913	40.5	1
0	87914	40.5	1
0	87915	40.5	2
0	87916	40.5	1
0	88034	40.55	1
0	88035	40.55	2
0	88036	40.55	1
0	88158	40.6	1
0	88159	40.6	2
0	88160	40.6	1
0	88161	40.6	1
0	88162	40.6	2
0	88163	40.6	1
0	88299	40.65	1
0	88300	40.65	2
0	88301	40.65	1
0	88420	40.7	1
0	88421	40.7	2
0	88422	40.7	1
0	88423	40.7	1
0	88424	40.7	2
0	88425	40.7	1
0	88558	40.75	1
0	88559	40.75	2
0	88560	40.75	1
0	88689	40.8	1
0	88690	40.8	2
0	88691	40.8	1
0	88692	40.8	1
0	88693	40.8	2
0	88694	40.8	1
0	88810	40.85	1
0	88811	40.85	2
0	88812	40.85	1
0	88949	40.9	1
0	88950	40.9	2
0	88951	40.9	1
0	88952	40.9	1
0	88953	40.9	2
0	88954	40.9	1
0	89079	40.95	1
0	89080	40.95	2
0	89081	40.95	1
0	89201	41	1
0	89202	41	2
0	89203	41	1
0	89204	41	1
0	89205	41	2
0	89206	41	1
0	89341	41.05	1
0	89342	41.05	2
0	89343	41.05	1
0	89465	41.1	1
0	89466	41.1	2
0	89467	41.1	1
0	89468	41.1	1
0	89469	41.1	2
0	89470	41.1	1
0	89605	41.15	1
0	89606	41.15	2
0	89607	41.15	1
0	89719	41.2	1
0	89720	41.2	2
0	89721	41.2	1
0	89722	41.2	1
0	89723	41.2	2
0	89724	41.2	1
0	89842	41.25	1
0	89843	41.25	2
0	89844	41.25	1
0	89973	41.3	1
0	89974	41.3	2
0	89975	41.3	1
0	89976	41.3	1
0	89977	41.3	2
0	89978	41.3	1
0	90106	41.35	1
0	90107	41.35	2
0	90108	41.35	1
0	90235	41.4	1
0	90236	41.4	2
0	90237	41.4	1
0	90238	41.4	1
0	90239	41.4	2
0	90240	41.4	1
0	90348	41.45	1
0	90349	41.45	2
0	90350	41.45	1
0	90474	41.5	1
0	90475	41.5	2
0	90476	41.5	1
0	90477	41.5	1
0	90478	41.5	2
0	90479	41.5	1
0	90609	41.55	1
0	90610	41.55	2
0	90611	41.55	1
0	90730	41.6	1
0	90731	41.6	2
0	90732	41.6	1
0	90733	41.6	1
0	90734	41.6	2
0	90735	41.6	1
0	90868	41.65	1
0	90869	41.65	2
0	90870	41.65	1
0	90999	41.7	1
0	91000	41.7	2
0	91001	41.7	1
0	91002	41.7	1
0	91003	41.7	2
0	91004	41.7	1
0	91136	41.75	1
0	91137	41.75	2
0	91138	41.75	1
0	91275	41.8	1
0	91276	41.8	2
0	91277	41.8	1
0	91278	41.8	1
0	91279	41.8	2
0	91280	41.8	1
0	91405	41.85	1
0	91406	41.85	2
0	91407	41.85	1
0	91536	41.9	1
0	91537	41.9	2
0	91538	41.9	1
0	91539	41.9	1
0	91540	41.9	2
0	91541	41.9	1
0	91669	41.95	1
0	91670	41.95	2
0	91671	41.95	1
0	91798	42	1
0	91799	42	2
0	91800	42	1
0	91801	42	1
0	91802	42	2
0	91803	42	1
0	91921	42.05	1
0	91922	42.05	2
0	91923	42.05	1
0	92042	42.1	1
0	92043	42.1	2
0	92044	42.1	1
0	92045	42.1	1
0	92046	42.1	2
0	92047	42.1	1
0	92183	42.15	1
0	92184	42.15	2
0	92185	42.15	1
0	92283	42.2	1
0	92284	42.2	2
0	92285	42.2	1
0	92286	42.2	1
0	92287	42.2	2
0	92288	42.2	1
0	92378	42.25	1
0	92379	42.25	2
0	92380	42.25	1
0	92462	42.3	1
0	92463	42.3	2
0	92464	42.3	1
0	92465	42.3	1
0	92466	42.3	2
0	92467	42.3	1
0	92562	42.35	1
0	92563	42.35	2
0	92564	42.35	1
0	92641	42.4	1
0	92642	42.4	2
0	92643	42.4	1
0	92644	42.4	1
0	92645	42.4	2
0	92646	42.4	1
0	92744	42.45	1
0	92745	42.45	2
0	92746	42.45	1
0	92837	42.5	1
0	92838	42.5	2
0	92839	42.5	1
0	92840	42.5	1
0	92841	42.5	2
0	92842	42.5	1
0	92933	42.55	1
0	92934	42.55	2
0	92935	42.55	1
0	93002	42.6	1
0	93003	42.6	2
0	93004	42.6	1
0	93005	42.6	1
0	93006	42.6	2
0	93007	42.6	1
0	93095	42.65	1
0	93096	42.65	2
0	93097	42.65	1
0	93182	42.7	1
0	93183	42.7	2
0	93184	42.7	1
0	93185	42.7	1
0	93186	42.7	2
0	93187	42.7	1
0	93274	42.75	1
0	93275	42.75	2
0	93276	42.75	1
0	93349	42.8	1
0	93350	42.8	2
0	93351	42.8	1
0	93352	42.8	1
0	93353	42.8	2
0	93354	42.8	1
0	93445	42.85	1
0	93446	42.85	2
0	93447	42.85	1
0	93526	42.9	1
0	93527	42.9	2
0	93528	42.9	1
0	93529	42.9	1
0	93530	42.9	2
0	93531	42.9	1
0	93607	42.95	1
0	93608	42.95	2
0	93609	42.95	1
0	94076	43	1
0	94077	43	2
0	94078	43	1
0	94079	43	1
0	94080	43	2
0	94081	43	1
0	94179	43.05	1
0	94180	43.05	2
0	94181	43.05	1
0	94263	43.1	1
0	94264	43.1	2
0	94265	43.1	1
0	94266	43.1	1
0	94267	43.1	2
0	94268	43.1	1
0	94367	43.15	1
0	94368	43.15	2
0	94369	43.15	1
0	94451	43.2	1
0	94452	43.2	2
0	94453	43.2	1
0	94454	43.2	1
0	94455	43.2	2
0	94456	43.2	1
0	94551	43.25	1
0	94552	43.25	2
0	94553	43.25	1
0	94627	43.3	1
0	94628	43.3	2
0	94629	43.3	1
0	94630	43.3	1
0	94631	43.3	2
0	94632	43.3	1
0	94749	43.35	1
0	94750	43.35	2
0	94751	43.35	1
0	94825	43.4	1
0	94826	43.4	2
0	94827	43.4	1
0	94828	43.4	1
0	94829	43.4	2
0	94830	43.4	1
0	94933	43.45	1
0	94934	43.45	2
0	94935	43.45	1
0	95011	43.5	1
0	95012	43.5	2
0	95013	43.5	1
0	95014	43.5	1
0	95015	43.5	2
0	95016	43.5	1
0	95109	43.55	1
0	95110	43.55	2
0	95111	43.55	1
0	95208	43.6	1
0	95209	43.6	2
0	95210	43.6	1
0	95211	43.6	1
0	95212	43.6	2
0	95213	43.6	1
0	95298	43.65	1
0	95299	43.65	2
0	95300	43.65	1
0	95397	43.7	1
0	95398	43.7	2
0	95399	43.7	1
0	95400	43.7	1
0	95401	43.7	2
0	95402	43.7	1
0	95497	43.75	1
0	95498	43.75	2
0	95499	43.75	1
0	95581	43.8	1
0	95582	43.8	2
0	95583	43.8	1
0	95584	43.8	1
0	95585	43.8	2
0	95586	43.8	1
0	95689	43.85	1
0	95690	43.85	2
0	95691	43.85	1
0	95780	43.9	1
0	95781	43.9	2
0	95782	43.9	1
0	95783	43.9	1
0	95784	43.9	2
0	95785	43.9	1
0	95878	43.95	1
0	95879	43.95	2
0	95880	43.95	1
0	95977	44	1
0	95978	44	2
0	95979	44	1
0	95980	44	1
0	95981	44	2
0	95982	44	1
0	96052	44.05	1
0	96053	44.05	2
0	96054	44.05	1
0	96151	44.1	1
0	96152	44.1	2
0	96153	44.1	1
0	96154	44.1	1
0	96155	44.1	2
0	96156	44.1	1
0	96251	44.15	1
0	96252	44.15	2
0	96253	44.15	1
0	96340	44.2	1
0	96341	44.2	2
0	96342	44.2	1
0	96343	44.2	1
0	96344	44.2	2
0	96345	44.2	1
0	96448	44.25	1
0	96449	44.25	2
0	96450	44.25	1
0	96519	44.3	1
0	96520	44.3	2
0	96521	44.3	1
0	96522	44.3	1
0	96523	44.3	2
0	96524	44.3	1
0	96612	44.35	1
0	96613	44.35	2
0	96614	44.35	1
0	96698	44.4	1
0	96699	44.4	2
0	96700	44.4	1
0	96701	44.4	1
0	96702	44.4	2
0	96703	44.4	1
0	96796	44.45	1
0	96797	44.45	2
0	96798	44.45	1
0	96895	44.5	1
0	96896	44.5	2
0	96897	44.5	1
0	96898	44.5	1
0	96899	44.5	2
0	96900	44.5	1
0	96985	44.55	1
0	96986	44.55	2
0	96987	44.55	1
0	97084	44.6	1
0	97085	44.6	2
0	97086	44.6	1
0	97087	44.6	1
0	97088	44.6	2
0	97089	44.6	1
0	97177	44.65	1
0	97178	44.65	2
0	97179	44.65	1
0	97253	44.7	1
0	97254	44.7	2
0	97255	44.7	1
0	97256	44.7	1
0	97257	44.7	2
0	97258	44.7	1
0	97375	44.75	1
0	97376	44.75	2
0	97377	44.75	1
0	97451	44.8	1
0	97452	44.8	2
0	97453	44.8	1
0	97454	44.8	1
0	97455	44.8	2
0	97456	44.8	1
0	97549	44.85	1
0	97550	44.85	2
0	97551	44.85	1
0	97650	44.9	1
0	97651	44.9	2
0	97652	44.9	1
0	97653	44.9	1
0	97654	44.9	2
0	97655	44.9	1
0	97739	44.95	1
0	97740	44.95	2
0	97741	44.95	1
0	97838	45	1
0	97839	45	2
0	97840	45	1
0	97841	45	1
0	97842	45	2
0	97843	45	1
0	97938	45.05	1
0	97939	45.05	2
0	97940	45.05	1
0	98024	45.1	1
0	98025	45.1	2
0	98026	45.1	1
0	98027	45.1	1
0	98028	45.1	2
0	98029	45.1	1
0	98117	45.15	1
0	98118	45.15	2
0	98119	45.15	1
0	98198	45.2	1
0	98199	45.2	2
0	98200	45.2	1
0	98201	45.2	1
0	98202	45.2	2
0	98203	45.2	1
0	98301	45.25	1
0	98302	45.25	2
0	98303	45.25	1
0	98377	45.3	1
0	98378	45.3	2
0	98379	45.3	1
0	98380	45.3	1
0	98381	45.3	2
0	98382	45.3	1
0	98470	45.35	1
0	98471	45.35	2
0	98472	45.35	1
0	98569	45.4	1
0	98570	45.4	2
0	98571	45.4	1
0	98572	45.4	1
0	98573	45.4	2
0	98574	45.4	1
0	98669	45.45	1
0	98670	45.45	2
0	98671	45.45	1
0	98758	45.5	1
0	98759	45.5	2
0	98760	45.5	1
0	98761	45.5	1
0	98762	45.5	2
0	98763	45.5	1
0	98866	45.55	1
0	98867	45.55	2
0	98868	45.55	1
0	98947	45.6	1
0	98948	45.6	2
0	98949	45.6	1
0	98950	45.6	1
0	98951	45.6	2
0	98952	45.6	1
0	99055	45.65	1
0	99056	45.65	2
0	99057	45.65	1
0	99146	45.7	1
0	99147	45.7	2
0	99148	45.7	1
0	99149	45.7	1
0	99150	45.7	2
0	99151	45.7	1
0	99244	45.75	1
0	99245	45.75	2
0	99246	45.75	1
0	99304	45.8	1
0	99305	45.8	2
0	99306	45.8	1
0	99307	45.8	1
0	99308	45.8	2
0	99309	45.8	1
0	99349	45.85	1
0	99350	45.85	2
0	99351	45.85	1
0	99376	45.9	1
0	99377	45.9	2
0	99378	45.9	1
0	99379	45.9	1
0	99380	45.9	2
0	99381	45.9	1
0	99412	45.95	1
0	99413	45.95	2
0	99414	45.95	1
0	99439	46	1
0	99440	46	2
0	99441	46	1
0	99442	46	1
0	99443	46	2
0	99444	46	1
0	99475	46.05	1
0	99476	46.05	2
0	99477	46.05	1
0	99502	46.1	1
0	99503	46.1	2
0	99504	46.1	1
0	99505	46.1	1
0	99506	46.1	2
0	99507	46.1	1
0	99538	46.15	1
0	99539	46.15	2
0	99540	46.15	1
0	99565	46.2	1
0	99566	46.2	2
0	99567	46.2	1
0	99568	46.2	1
0	99569	46.2	2
0	99570	46.2	1
0	99601	46.25	1
0	99602	46.25	2
0	99603	46.25	1
0	99628	46.3	1
0	99629	46.3	2
0	99630	46.3	1
0	99631	46.3	1
0	99632	46.3	2
0	99633	46.3	1
0	100115	46.35	1
0	100116	46.35	2
0	100117	46.35	1
0	100199	46.4	1
0	100200	46.4	2
0	100201	46.4	1
0	100202	46.4	1
0	100203	46.4	2
0	100204	46.4	1
0	100292	46.45	1
0	100293	46.45	2
0	100294	46.45	1
0	100397	46.5	1
0	100398	46.5	2
0	100399	46.5	1
0	100400	46.5	1
0	100401	46.5	2
0	100402	46.5	1
0	100513	46.55	1
0	100514	46.55	2
0	100515	46.55	1
0	100597	46.6	1
0	100598	46.6	2
0	100599	46.6	1
0	100600	46.6	1
0	100601	46.6	2
0	100602	46.6	1
0	100687	46.65	1
0	100688	46.65	2
0	100689	46.65	1
0	101206	46.7	1
0	101207	46.7	2
0	101208	46.7	1
0	101209	46.7	1
0	101210	46.7	2
0	101211	46.7	1
0	101337	46.75	1
0	101338	46.75	2
0	101339	46.75	1
0	101444	46.8	1
0	101445	46.8	2
0	101446	46.8	1
0	101447	46.8	1
0	101448	46.8	2
0	101449	46.8	1
0	101584	46.85	1
0	101585	46.85	2
0	101586	46.85	1
0	101705	46.9	1
0	101706	46.9	2
0	101707	46.9	1
0	101708	46.9	1
0	101709	46.9	2
0	101710	46.9	1
0	101846	46.95	1
0	101847	46.95	2
0	101848	46.95	1
0	101952	47	1
0	101953	47	2
0	101954	47	1
0	101955	47	1
0	101956	47	2
0	101957	47	1
0	102090	47.05	1
0	102091	47.05	2
0	102092	47.05	1
0	102235	47.1	1
0	102236	47.1	2
0	102237	47.1	1
0	102238	47.1	1
0	102239	47.1	2
0	102240	47.1	1
0	102358	47.15	1
0	102359	47.15	2
0	102360	47.15	1
0	102487	47.2	1
0	102488	47.2	2
0	102489	47.2	1
0	102490	47.2	1
0	102491	47.2	2
0	102492	47.2	1
0	102612	47.25	1
0	102613	47.25	2
0	102614	47.25	1
0	102741	47.3	1
0	102742	47.3	2
0	102743	47.3	1
0	102744	47.3	1
0	102745	47.3	2
0	102746	47.3	1
0	102881	47.35	1
0	102882	47.35	2
0	102883	47.35	1
0	103010	47.4	1
0	103011	47.4	2
0	103012	47.4	1
0	103013	47.4	1
0	103014	47.4	2
0	103015	47.4	1
0	103148	47.45	1
0	103149	47.45	2
0	103150	47.45	1
0	103264	47.5	1
0	103265	47.5	2
0	103266	47.5	1
0	103267	47.5	1
0	103268	47.5	2
0	103269	47.5	1
0	103402	47.55	1
0	103403	47.55	2
0	103404	47.55	1
0	103514	47.6	1
0	103515	47.6	2
0	103516	47.6	1
0	103517	47.6	1
0	103518	47.6	2
0	103519	47.6	1
0	103639	47.65	1
0	103640	47.65	2
0	103641	47.65	1
0	103741	47.7	1
0	103742	47.7	2
0	103743	47.7	1
0	103744	47.7	1
0	103745	47.7	2
0	103746	47.7	1
0	103881	47.75	1
0	103882	47.75	2
0	103883	47.75	1
0	104000	47.8	1
0	104001	47.8	2
0	104002	47.8	1
0	104003	47.8	1
0	104004	47.8	2
0	104005	47.8	1
0	104148	47.85	1
0	104149	47.85	2
0	104150	47.85	1
0	104269	47.9	1
0	104270	47.9	2
0	104271	47.9	1
0	104272	47.9	1
0	104273	47.9	2
0	104274	47.9	1
0	104407	47.95	1
0	104408	47.95	2
0	104409	47.95	1
0	104526	48	1
0	104527	48	2
0	104528	48	1
0	104529	48	1
0	104530	48	2
0	104531	48	1
0	104664	48.05	1
0	104665	48.05	2
0	104666	48.05	1
0	104766	48.1	1
0	104767	48.1	2
0	104768	48.1	1
0	104769	48.1	1
0	104770	48.1	2
0	104771	48.1	1
0	104891	48.15	1
0	104892	48.15	2
0	104893	48.15	1
0	105020	48.2	1
0	105021	48.2	2
0	105022	48.2	1
0	105023	48.2	1
0	105024	48.2	2
0	105025	48.2	1
0	105160	48.25	1
0	105161	48.25	2
0	105162	48.25	1
0	105284	48.3	1
0	105285	48.3	2
0	105286	48.3	1
0	105287	48.3	1
0	105288	48.3	2
0	105289	48.3	1
0	105422	48.35	1
0	105423	48.35	2
0	105424	48.35	1
0	105541	48.4	1
0	105542	48.4	2
0	105543	48.4	1
0	105544	48.4	1
0	105545	48.4	2
0	105546	48.4	1
0	105669	48.45	1
0	105670	48.45	2
0	105671	48.45	1
0	105810	48.5	1
0	105811	48.5	2
0	105812	48.5	1
0	105813	48.5	1
0	105814	48.5	2
0	105815	48.5	1
0	105918	48.55	1
0	105919	48.55	2
0	105920	48.55	1
0	106040	48.6	1
0	106041	48.6	2
0	106042	48.6	1
0	106043	48.6	1
0	106044	48.6	2
0	106045	48.6	1
0	106180	48.65	1
0	106181	48.65	2
0	106182	48.65	1
0	106313	48.7	1
0	106314	48.7	2
0	106315	48.7	1
0	106316	48.7	1
0	106317	48.7	2
0	106318	48.7	1
0	106461	48.75	1
0	106462	48.75	2
0	106463	48.75	1
0	106562	48.8	1
0	106563	48.8	2
0	106564	48.8	1
0	106565	48.8	1
0	106566	48.8	2
0	106567	48.8	1
0	106702	48.85	1
0	106703	48.85	2
0	106704	48.85	1
0	106828	48.9	1
0	106829	48.9	2
0	106830	48.9	1
0	106831	48.9	1
0	106832	48.9	2
0	106833	48.9	1
0	106966	48.95	1
0	106967	48.95	2
0	106968	48.95	1
0	107095	49	1
0	107096	49	2
0	107097	49	1
0	107098	49	1
0	107099	49	2
0	107100	49	1
0	107218	49.05	1
0	107219	49.05	2
0	107220	49.05	1
0	107345	49.1	1
0	107346	49.1	2
0	107347	49.1	1
0	107348	49.1	1
0	107349	49.1	2
0	107350	49.1	1
0	107459	49.15	1
0	107460	49.15	2
0	107461	49.15	1
0	107540	49.2	1
0	107541	49.2	2
0	107542	49.2	1
0	107543	49.2	1
0	107544	49.2	2
0	107545	49.2	1
0	107648	49.25	1
0	107649	49.25	2
0	107650	49.25	1
0	107724	49.3	1
0	107725	49.3	2
0	107726	49.3	1
0	107727	49.3	1
0	107728	49.3	2
0	107729	49.3	1
0	107822	49.35	1
0	107823	49.35	2
0	107824	49.35	1
0	107921	49.4	1
0	107922	49.4	2
0	107923	49.4	1
0	107924	49.4	1
0	107925	49.4	2
0	107926	49.4	1
0	108023	49.45	1
0	108024	49.45	2
0	108025	49.45	1
0	108110	49.5	1
0	108111	49.5	2
0	108112	49.5	1
0	108113	49.5	1
0	108114	49.5	2
0	108115	49.5	1
0	108188	49.55	1
0	108189	49.55	2
0	108190	49.55	1
0	108272	49.6	1
0	108273	49.6	2
0	108274	49.6	1
0	108275	49.6	1
0	108276	49.6	2
0	108277	49.6	1
0	108368	49.65	1
0	108369	49.65	2
0	108370	49.65	1
0	108451	49.7	1
0	108452	49.7	2
0	108453	49.7	1
0	108454	49.7	1
0	108455	49.7	2
0	108456	49.7	1
0	108535	49.75	1
0	108536	49.75	2
0	108537	49.75	1
0	108622	49.8	1
0	108623	49.8	2
0	108624	49.8	1
0	108625	49.8	1
0	108626	49.8	2
0	108627	49.8	1
0	108703	49.85	1
0	108704	49.85	2
0	108705	49.85	1
0	108784	49.9	1
0	108785	49.9	2
0	108786	49.9	1
0	108787	49.9	1
0	108788	49.9	2
0	108789	49.9	1
0	109268	49.95	1
0	109269	49.95	2
0	109270	49.95	1
0	109362	50	1
0	109363	50	2
0	109364	50	1
0	109365	50	1
0	109366	50	2
0	109367	50	1
0	109452	50.05	1
0	109453	50.05	2
0	109454	50.05	1
0	109565	50.1	1
0	109566	50.1	2
0	109567	50.1	1
0	109568	50.1	1
0	109569	50.1	2
0	109570	50.1	1
0	109673	50.15	1
0	109674	50.15	2
0	109675	50.15	1
0	109749	50.2	1
0	109750	50.2	2
0	109751	50.2	1
0	109752	50.2	1
0	109753	50.2	2
0	109754	50.2	1
0	109859	50.25	1
0	109860	50.25	2
0	109861	50.25	1
0	109964	50.3	1
0	109965	50.3	2
0	109966	50.3	1
0	109967	50.3	1
0	109968	50.3	2
0	109969	50.3	1
0	110057	50.35	1
0	110058	50.35	2
0	110059	50.35	1
0	110156	50.4	1
0	110157	50.4	2
0	110158	50.4	1
0	110159	50.4	1
0	110160	50.4	2
0	110161	50.4	1
0	110233	50.45	1
0	110234	50.45	2
0	110235	50.45	1
0	110332	50.5	1
0	110333	50.5	2
0	110334	50.5	1
0	110335	50.5	1
0	110336	50.5	2
0	110337	50.5	1
0	110432	50.55	1
0	110433	50.55	2
0	110434	50.55	1
0	110521	50.6	1
0	110522	50.6	2
0	110523	50.6	1
0	110524	50.6	1
0	110525	50.6	2
0	110526	50.6	1
0	110629	50.65	1
0	110630	50.65	2
0	110631	50.65	1
0	110710	50.7	1
0	110711	50.7	2
0	110712	50.7	1
0	110713	50.7	1
0	110714	50.7	2
0	110715	50.7	1
0	110818	50.75	1
0	110819	50.75	2
0	110820	50.75	1
0	110894	50.8	1
0	110895	50.8	2
0	110896	50.8	1
0	110897	50.8	1
0	110898	50.8	2
0	110899	50.8	1
0	110992	50.85	1
0	110993	50.85	2
0	110994	50.85	1
0	111086	50.9	1
0	111087	50.9	2
0	111088	50.9	1
0	111089	50.9	1
0	111090	50.9	2
0	111091	50.9	1
0	111186	50.95	1
0	111187	50.95	2
0	111188	50.95	1
0	111275	51	1
0	111276	51	2
0	111277	51	1
0	111278	51	1
0	111279	51	2
0	111280	51	1
0	111383	51.05	1
0	111384	51.05	2
0	111385	51.05	1
0	111459	51.1	1
0	111460	51.1	2
0	111461	51.1	1
0	111462	51.1	1
0	111463	51.1	2
0	111464	51.1	1
0	111567	51.15	1
0	111568	51.15	2
0	111569	51.15	1
0	111658	51.2	1
0	111659	51.2	2
0	111660	51.2	1
0	111661	51.2	1
0	111662	51.2	2
0	111663	51.2	1
0	111756	51.25	1
0	111757	51.25	2
0	111758	51.25	1
0	111855	51.3	1
0	111856	51.3	2
0	111857	51.3	1
0	111858	51.3	1
0	111859	51.3	2
0	111860	51.3	1
0	111945	51.35	1
0	111946	51.35	2
0	111947	51.35	1
0	112029	51.4	1
0	112030	51.4	2
0	112031	51.4	1
0	112032	51.4	1
0	112033	51.4	2
0	112034	51.4	1
0	112129	51.45	1
0	112130	51.45	2
0	112131	51.45	1
0	112218	51.5	1
0	112219	51.5	2
0	112220	51.5	1
0	112221	51.5	1
0	112222	51.5	2
0	112223	51.5	1
0	112326	51.55	1
0	112327	51.55	2
0	112328	51.55	1
0	112407	51.6	1
0	112408	51.6	2
0	112409	51.6	1
0	112410	51.6	1
0	112411	51.6	2
0	112412	51.6	1
0	112515	51.65	1
0	112516	51.65	2
0	112517	51.65	1
0	112628	51.7	1
0	112629	51.7	2
0	112630	51.7	1
0	112631	51.7	1
0	112632	51.7	2
0	112633	51.7	1
0	112718	51.75	1
0	112719	51.75	2
0	112720	51.75	1
0	112802	51.8	1
0	112803	51.8	2
0	112804	51.8	1
0	112805	51.8	1
0	112806	51.8	2
0	112807	51.8	1
0	112904	51.85	1
0	112905	51.85	2
0	112906	51.85	1
0	113007	51.9	1
0	113008	51.9	2
0	113009	51.9	1
0	113010	51.9	1
0	113011	51.9	2
0	113012	51.9	1
0	113115	51.95	1
0	113116	51.95	2
0	113117	51.95	1
0	113196	52	1
0	113197	52	2
0	113198	52	1
0	113199	52	1
0	113200	52	2
0	113201	52	1
0	113301	52.05	1
0	113302	52.05	2
0	113303	52.05	1
0	113392	52.1	1
0	113393	52.1	2
0	113394	52.1	1
0	113395	52.1	1
0	113396	52.1	2
0	113397	52.1	1
0	113485	52.15	1
0	113486	52.15	2
0	113487	52.15	1
0	113579	52.2	1
0	113580	52.2	2
0	113581	52.2	1
0	113582	52.2	1
0	113583	52.2	2
0	113584	52.2	1
0	113669	52.25	1
0	113670	52.25	2
0	113671	52.25	1
0	113763	52.3	1
0	113764	52.3	2
0	113765	52.3	1
0	113766	52.3	1
0	113767	52.3	2
0	113768	52.3	1
0	113863	52.35	1
0	113864	52.35	2
0	113865	52.35	1
0	113952	52.4	1
0	113953	52.4	2
0	113954	52.4	1
0	113955	52.4	1
0	113956	52.4	2
0	113957	52.4	1
0	114060	52.45	1
0	114061	52.45	2
0	114062	52.45	1
0	114144	52.5	1
0	114145	52.5	2
0	114146	52.5	1
0	114147	52.5	1
0	114148	52.5	2
0	114149	52.5	1
0	114244	52.55	1
0	114245	52.55	2
0	114246	52.55	1
0	114343	52.6	1
0	114344	52.6	2
0	114345	52.6	1
0	114346	52.6	1
0	114347	52.6	2
0	114348	52.6	1
0	114433	52.65	1
0	114434	52.65	2
0	114435	52.65	1
0	114535	52.7	1
0	114536	52.7	2
0	114537	52.7	1
0	114538	52.7	1
0	114539	52.7	2
0	114540	52.7	1
0	114583	52.75	1
0	114584	52.75	2
0	114585	52.75	1
0	114619	52.8	1
0	114620	52.8	2
0	114621	52.8	1
0	114622	52.8	1
0	114623	52.8	2
0	114624	52.8	1
0	114655	52.85	1
0	114656	52.85	2
0	114657	52.85	1
0	114682	52.9	1
0	114683	52.9	2
0	114684	52.9	1
0	114685	52.9	1
0	114686	52.9	2
0	114687	52.9	1
0	114718	52.95	1
0	114719	52.95	2
0	114720	52.95	1
0	114745	53	1
0	114746	53	2
0	114747	53	1
0	114748	53	1
0	114749	53	2
0	114750	53	1
0	114781	53.05	1
0	114782	53.05	2
0	114783	53.05	1
0	114808	53.1	1
0	114809	53.1	2
0	114810	53.1	1
0	114811	53.1	1
0	114812	53.1	2
0	114813	53.1	1
0	114844	53.15	1
0	114845	53.15	2
0	114846	53.15	1
0	114871	53.2	1
0	114872	53.2	2
0	114873	53.2	1
0	114874	53.2	1
0	114875	53.2	2
0	114876	53.2	1
0	114907	53.25	1
0	114908	53.25	2
0	114909	53.25	1
0	115385	53.3	1
0	115386	53.3	2
0	115387	53.3	1
0	115388	53.3	1
0	115389	53.3	2
0	115390	53.3	1
0	115483	53.35	1
0	115484	53.35	2
0	115485	53.35	1
0	115582	53.4	1
0	115583	53.4	2
0	115584	53.4	1
0	115585	53.4	1
0	115586	53.4	2
0	115587	53.4	1
0	115691	53.45	1
0	115692	53.45	2
0	115693	53.45	1
0	115803	53.5	1
0	115804	53.5	2
0	115805	53.5	1
0	115806	53.5	1
0	115807	53.5	2
0	115808	53.5	1
0	115911	53.55	1
0	115912	53.55	2
0	115913	53.55	1
0	115977	53.6	1
0	115978	53.6	2
0	115979	53.6	1
0	115980	53.6	1
0	115981	53.6	2
0	115982	53.6	1
0	116520	53.65	1
0	116521	53.65	2
0	116522	53.65	1
0	116642	53.7	1
0	116643	53.7	2
0	116644	53.7	1
0	116645	53.7	1
0	116646	53.7	2
0	116647	53.7	1
0	116780	53.75	1
0	116781	53.75	2
0	116782	53.75	1
0	116911	53.8	1
0	116912	53.8	2
0	116913	53.8	1
0	116914	53.8	1
0	116915	53.8	2
0	116916	53.8	1
0	117026	53.85	1
0	117027	53.85	2
0	117028	53.85	1
0	117160	53.9	1
0	117161	53.9	2
0	117162	53.9	1
0	117163	53.9	1
0	117164	53.9	2
0	117165	53.9	1
0	117290	53.95	1
0	117291	53.95	2
0	117292	53.95	1
0	117419	54	1
0	117420	54	2
0	117421	54	1
0	117422	54	1
0	117423	54	2
0	117424	54	1
0	117564	54.05	1
0	117565	54.05	2
0	117566	54.05	1
0	117683	54.1	1
0	117684	54.1	2
0	117685	54.1	1
0	117686	54.1	1
0	117687	54.1	2
0	117688	54.1	1
0	117816	54.15	1
0	117817	54.15	2
0	117818	54.15	1
0	117937	54.2	1
0	117938	54.2	2
0	117939	54.2	1
0	117940	54.2	1
0	117941	54.2	2
0	117942	54.2	1
0	118075	54.25	1
0	118076	54.25	2
0	118077	54.25	1
0	118206	54.3	1
0	118207	54.3	2
0	118208	54.3	1
0	118209	54.3	1
0	118210	54.3	2
0	118211	54.3	1
0	118344	54.35	1
0	118345	54.35	2
0	118346	54.35	1
0	118473	54.4	1
0	118474	54.4	2
0	118475	54.4	1
0	118476	54.4	1
0	118477	54.4	2
0	118478	54.4	1
0	118581	54.45	1
0	118582	54.45	2
0	118583	54.45	1
0	118710	54.5	1
0	118711	54.5	2
0	118712	54.5	1
0	118713	54.5	1
0	118714	54.5	2
0	118715	54.5	1
0	118858	54.55	1
0	118859	54.55	2
0	118860	54.55	1
0	118979	54.6	1
0	118980	54.6	2
0	118981	54.6	1
0	118982	54.6	1
0	118983	54.6	2
0	118984	54.6	1
0	119117	54.65	1
0	119118	54.65	2
0	119119	54.65	1
0	119248	54.7	1
0	119249	54.7	2
0	119250	54.7	1
0	119251	54.7	1
0	119252	54.7	2
0	119253	54.7	1
0	119376	54.75	1
0	119377	54.75	2
0	119378	54.75	1
0	119515	54.8	1
0	119516	54.8	2
0	119517	54.8	1
0	119518	54.8	1
0	119519	54.8	2
0	119520	54.8	1
0	119645	54.85	1
0	119646	54.85	2
0	119647	54.85	1
0	119744	54.9	1
0	119745	54.9	2
0	119746	54.9	1
0	119747	54.9	1
0	119748	54.9	2
0	119749	54.9	1
0	119884	54.95	1
0	119885	54.95	2
0	119886	54.95	1
0	120013	55	1
0	120014	55	2
0	120015	55	1
0	120016	55	1
0	120017	55	2
0	120018	55	1
0	120153	55.05	1
0	120154	55.05	2
0	120155	55.05	1
0	120274	55.1	1
0	120275	55.1	2
0	120276	55.1	1
0	120277	55.1	1
0	120278	55.1	2
0	120279	55.1	1
0	120402	55.15	1
0	120403	55.15	2
0	120404	55.15	1
0	120533	55.2	1
0	120534	55.2	2
0	120535	55.2	1
0	120536	55.2	1
0	120537	55.2	2
0	120538	55.2	1
0	120673	55.25	1
0	120674	55.25	2
0	120675	55.25	1
0	120787	55.3	1
0	120788	55.3	2
0	120789	55.3	1
0	120790	55.3	1
0	120791	55.3	2
0	120792	55.3	1
0	120900	55.35	1
0	120901	55.35	2
0	120902	55.35	1
0	121026	55.4	1
0	121027	55.4	2
0	121028	55.4	1
0	121029	55.4	1
0	121030	55.4	2
0	121031	55.4	1
0	121176	55.45	1
0	121177	55.45	2
0	121178	55.45	1
0	121297	55.5	1
0	121298	55.5	2
0	121299	55.5	1
0	121300	55.5	1
0	121301	55.5	2
0	121302	55.5	1
0	121435	55.55	1
0	121436	55.55	2
0	121437	55.55	1
0	121566	55.6	1
0	121567	55.6	2
0	121568	55.6	1
0	121569	55.6	1
0	121570	55.6	2
0	121571	55.6	1
0	121708	55.65	1
0	121709	55.65	2
0	121710	55.65	1
0	121840	55.7	1
0	121841	55.7	2
0	121842	55.7	1
0	121843	55.7	1
0	121844	55.7	2
0	121845	55.7	1
0	121950	55.75	1
0	121951	55.75	2
0	121952	55.75	1
0	122081	55.8	1
0	122082	55.8	2
0	122083	55.8	1
0	122084	55.8	1
0	122085	55.8	2
0	122086	55.8	1
0	122221	55.85	1
0	122222	55.85	2
0	122223	55.85	1
0	122343	55.9	1
0	122344	55.9	2
0	122345	55.9	1
0	122346	55.9	1
0	122347	55.9	2
0	122348	55.9	1
0	122476	55.95	1
0	122477	55.95	2
0	122478	55.95	1
0	122597	56	1
0	122598	56	2
0	122599	56	1
0	122600	56	1
0	122601	56	2
0	122602	56	1
0	122738	56.05	1
0	122739	56.05	2
0	122740	56.05	1
0	122828	56.1	1
0	122829	56.1	2
0	122830	56.1	1
0	122831	56.1	1
0	122832	56.1	2
0	122833	56.1	1
0	122903	56.15	1
0	122904	56.15	2
0	122905	56.15	1
0	122997	56.2	1
0	122998	56.2	2
0	122999	56.2	1
0	123000	56.2	1
0	123001	56.2	2
0	123002	56.2	1
0	123097	56.25	1
0	123098	56.25	2
0	123099	56.25	1
0	123186	56.3	1
0	123187	56.3	2
0	123188	56.3	1
0	123189	56.3	1
0	123190	56.3	2
0	123191	56.3	1
0	123294	56.35	1
0	123295	56.35	2
0	123296	56.35	1
0	123387	56.4	1
0	123388	56.4	2
0	123389	56.4	1
0	123390	56.4	1
0	123391	56.4	2
0	123392	56.4	1
0	123483	56.45	1
0	123484	56.45	2
0	123485	56.45	1
0	123567	56.5	1
0	123568	56.5	2
0	123569	56.5	1
0	123570	56.5	1
0	123571	56.5	2
0	123572	56.5	1
0	123663	56.55	1
[...]
3	210315	94.690101798028	1124898
3	210325	94.698826728067	1125039
3	210379	94.703941798028	1125180
3	210389	94.712666728067	1125321
3	210407	94.717781798028	1125462
3	210417	94.726506728067	1125603
3	210435	94.731621798028	1125744
3	210445	94.740346728067	1125885
3	210463	94.745461798028	1126026
3	210500	94.754186728067	1126167
3	210518	94.759301798028	1126308
3	210528	94.768026728067	1126449
3	210546	94.773141798028	1126590
3	210556	94.781866728067	1126731
3	210574	94.786981798028	1126872
3	210584	94.795706728067	1127013
3	210640	94.800821798028	1127154
3	210650	94.809546728067	1127295
3	210668	94.814661798028	1127436
3	210678	94.823386728067	1127577
3	210696	94.828501798028	1127718
3	210706	94.837226728067	1127859
3	210724	94.842341798028	1128000
3	210761	94.851066728067	1128141
3	210779	94.856181798028	1128282
3	210789	94.864906728067	1128423
3	210807	94.870021798028	1128564
3	210817	94.878746728067	1128705
3	210835	94.883861798028	1128846
3	210845	94.892586728067	1128987
3	210863	94.897701798028	1129128
3	210909	94.906426728067	1129269
3	210927	94.911541798028	1129410
3	210937	94.920266728067	1129551
3	210955	94.925381798028	1129692
3	210965	94.934106728067	1129833
3	210983	94.939221798028	1129974
3	210993	94.947946728067	1130115
3	211038	94.953061798028	1130256
3	211048	94.961786728067	1130397
3	211066	94.966901798028	1130538
3	211076	94.975626728067	1130679
3	211094	94.980741798028	1130820
3	211104	94.989466728067	1130961
3	211122	94.994581798028	1131102
3	211168	95.003306728067	1131243
3	211189	95.017146728067	1131384
3	211207	95.022261798028	1131525
3	211217	95.030986728067	1131666
3	211235	95.036101798028	1131807
3	211248	95.049941798028	1131948
3	211285	95.058666728067	1132089
3	211303	95.063781798028	1132230
3	211313	95.072506728067	1132371
3	211331	95.077621798028	1132512
3	211341	95.086346728067	1132653
3	211359	95.091461798028	1132794
3	211405	95.100186728067	1132935
3	211423	95.105301798028	1133076
3	211433	95.114026728067	1133217
3	211446	95.119141798028	1133358
3	211456	95.127866728067	1133499
3	211474	95.132981798028	1133640
3	211484	95.141706728067	1133781
3	211532	95.155546728067	1133922
3	211550	95.160661798028	1134063
3	211560	95.169386728067	1134204
3	211578	95.174501798028	1134345
3	211588	95.183226728067	1134486
3	211606	95.188341798028	1134627
3	211616	95.197066728067	1134768
3	211670	95.202181798028	1134909
3	211683	95.216021798028	1135050
3	211693	95.224746728067	1135191
3	211714	95.238586728067	1135332
3	211732	95.243701798028	1135473
3	211769	95.252426728067	1135614
3	211787	95.257541798028	1135755
3	211797	95.266266728067	1135896
3	211815	95.271381798028	1136037
3	211825	95.280106728067	1136178
3	211843	95.285221798028	1136319
3	211853	95.293946728067	1136460
3	211871	95.299061798028	1136601
3	211917	95.307786728067	1136742
3	211935	95.312901798028	1136883
3	211945	95.321626728067	1137024
3	211963	95.326741798028	1137165
3	211973	95.335466728067	1137306
3	211991	95.340581798028	1137447
3	212001	95.349306728067	1137588
3	212046	95.354421798028	1137729
3	212056	95.363146728067	1137870
3	212074	95.368261798028	1138011
3	212084	95.376986728067	1138152
3	212102	95.382101798028	1138293
3	212112	95.390826728067	1138434
3	212130	95.395941798028	1138575
3	212178	95.404666728067	1138716
3	212196	95.409781798028	1138857
3	212206	95.418506728067	1138998
3	212224	95.423621798028	1139139
3	212234	95.432346728067	1139280
3	212252	95.437461798028	1139421
3	212262	95.446186728067	1139562
3	212307	95.451301798028	1139703
3	212317	95.460026728067	1139844
3	212335	95.465141798028	1139985
3	212345	95.473866728067	1140126
3	212363	95.478981798028	1140267
3	212373	95.487706728067	1140408
3	212391	95.492821798028	1140549
3	212437	95.501546728067	1140690
3	212458	95.515386728067	1140831
3	212479	95.529226728067	1140972
3	212497	95.534341798028	1141113
3	212507	95.543066728067	1141254
3	212525	95.548181798028	1141395
3	212562	95.556906728067	1141536
3	212580	95.562021798028	1141677
3	212590	95.570746728067	1141818
3	212608	95.575861798028	1141959
3	212618	95.584586728067	1142100
3	212636	95.589701798028	1142241
3	212646	95.598426728067	1142382
3	212700	95.603541798028	1142523
3	212710	95.612266728067	1142664
3	212728	95.617381798028	1142805
3	212738	95.626106728067	1142946
3	212756	95.631221798028	1143087
3	212766	95.639946728067	1143228
3	212784	95.645061798028	1143369
3	212821	95.653786728067	1143510
3	212839	95.658901798028	1143651
3	212849	95.667626728067	1143792
3	212867	95.672741798028	1143933
3	212877	95.681466728067	1144074
3	212895	95.686581798028	1144215
3	212905	95.695306728067	1144356
3	212959	95.700421798028	1144497
3	212969	95.709146728067	1144638
3	212982	95.714261798028	1144779
3	212992	95.722986728067	1144920
3	213005	95.728101798028	1145061
3	213015	95.736826728067	1145202
3	213033	95.741941798028	1145343
3	213070	95.750666728067	1145484
3	213088	95.755781798028	1145625
3	213098	95.764506728067	1145766
3	213116	95.769621798028	1145907
3	213126	95.778346728067	1146048
3	213139	95.783461798028	1146189
3	213149	95.792186728067	1146330
3	213167	95.797301798028	1146471
3	213215	95.806026728067	1146612
3	213233	95.811141798028	1146753
3	213246	95.824981798028	1146894
3	213256	95.833706728067	1147035
3	213274	95.838821798028	1147176
3	213284	95.847546728067	1147317
3	213329	95.852661798028	1147458
3	213339	95.861386728067	1147599
3	213357	95.866501798028	1147740
3	213367	95.875226728067	1147881
3	213385	95.880341798028	1148022
3	213395	95.889066728067	1148163
3	213413	95.894181798028	1148304
3	213459	95.902906728067	1148445
3	213477	95.908021798028	1148586
3	213487	95.916746728067	1148727
3	213505	95.921861798028	1148868
3	213515	95.930586728067	1149009
3	213533	95.935701798028	1149150
3	213543	95.944426728067	1149291
3	213561	95.949541798028	1149432
3	213598	95.958266728067	1149573
3	213616	95.963381798028	1149714
3	213626	95.972106728067	1149855
3	213644	95.977221798028	1149996
3	213654	95.985946728067	1150137
3	213672	95.991061798028	1150278
3	213682	95.999786728067	1150419
3	213736	96.004901798028	1150560
3	213746	96.013626728067	1150701
3	213764	96.018741798028	1150842
3	213774	96.027466728067	1150983
3	213792	96.032581798028	1151124
3	213802	96.041306728067	1151265
3	213820	96.046421798028	1151406
3	213857	96.055146728067	1151547
3	213875	96.060261798028	1151688
3	213885	96.068986728067	1151829
3	213903	96.074101798028	1151970
3	213913	96.082826728067	1152111
3	213931	96.087941798028	1152252
3	213941	96.096666728067	1152393
3	213995	96.101781798028	1152534
3	214005	96.110506728067	1152675
3	214023	96.115621798028	1152816
3	214033	96.124346728067	1152957
3	214051	96.129461798028	1153098
3	214061	96.138186728067	1153239
3	214079	96.143301798028	1153380
3	214116	96.152026728067	1153521
3	214134	96.157141798028	1153662
3	214144	96.165866728067	1153803
3	214162	96.170981798028	1153944
3	214172	96.179706728067	1154085
3	214190	96.184821798028	1154226
3	214200	96.193546728067	1154367
3	214218	96.198661798028	1154508
3	214264	96.207386728067	1154649
3	214282	96.212501798028	1154790
3	214292	96.221226728067	1154931
3	214310	96.226341798028	1155072
3	214320	96.235066728067	1155213
3	214338	96.240181798028	1155354
3	214348	96.248906728067	1155495
3	214395	96.254021798028	1155636
3	214405	96.262746728067	1155777
3	214427	96.267861798028	1155918
3	214445	96.276586728067	1156059
3	214463	96.281701798028	1156200
3	214473	96.290426728067	1156341
3	214491	96.295541798028	1156482
3	214537	96.304266728067	1156623
3	214555	96.309381798028	1156764
3	214565	96.318106728067	1156905
3	214583	96.323221798028	1157046
3	214593	96.331946728067	1157187
3	214611	96.337061798028	1157328
3	214621	96.345786728067	1157469
3	214666	96.350901798028	1157610
3	214676	96.359626728067	1157751
3	214694	96.364741798028	1157892
3	214704	96.373466728067	1158033
3	214722	96.378581798028	1158174
3	214732	96.387306728067	1158315
3	214750	96.392421798028	1158456
3	214798	96.401146728067	1158597
3	214816	96.406261798028	1158738
3	214826	96.414986728067	1158879
3	214844	96.420101798028	1159020
3	214854	96.428826728067	1159161
3	214872	96.433941798028	1159302
3	214882	96.442666728067	1159443
3	214900	96.447781798028	1159584
3	214937	96.456506728067	1159725
3	214955	96.461621798028	1159866
3	214965	96.470346728067	1160007
3	214983	96.475461798028	1160148
3	214993	96.484186728067	1160289
3	215011	96.489301798028	1160430
3	215021	96.498026728067	1160571
3	215075	96.503141798028	1160712
3	215085	96.511866728067	1160853
3	215103	96.516981798028	1160994
3	215113	96.525706728067	1161135
3	215131	96.530821798028	1161276
3	215141	96.539546728067	1161417
3	215159	96.544661798028	1161558
3	215196	96.553386728067	1161699
3	215214	96.558501798028	1161840
3	215224	96.567226728067	1161981
3	215242	96.572341798028	1162122
3	215252	96.581066728067	1162263
3	215270	96.586181798028	1162404
3	215280	96.594906728067	1162545
3	215334	96.600021798028	1162686
3	215347	96.608746728067	1162827
3	215363	96.622586728067	1162968
3	215384	96.636426728067	1163109
3	215429	96.650266728067	1163250
3	215447	96.664106728067	1163391
3	215465	96.677946728067	1163532
3	215483	96.691786728067	1163673
3	215537	96.705626728067	1163814
3	215555	96.719466728067	1163955
3	215573	96.733306728067	1164096
3	215591	96.747146728067	1164237
3	215636	96.760986728067	1164378
3	215654	96.774826728067	1164519
3	215672	96.788666728067	1164660
3	215726	96.802506728067	1164801
3	215744	96.816346728067	1164942
3	215762	96.830186728067	1165083
3	215780	96.844026728067	1165224
3	215825	96.857866728067	1165365
3	215843	96.871706728067	1165506
3	215861	96.885546728067	1165647
3	215879	96.899386728067	1165788
3	215933	96.913226728067	1165929
3	215946	96.927066728067	1166070
3	215964	96.940906728067	1166211
3	216004	96.954746728067	1166352
3	216022	96.968586728067	1166493
3	216040	96.982426728067	1166634
3	216099	97.010106728067	1166775
3	216117	97.023946728067	1166916
3	216135	97.037786728067	1167057
3	217398	97.542075069961	1167198
3	217445	97.555915069961	1167339
3	217475	97.569755069961	1167480
3	217493	97.583595069961	1167621
3	217511	97.597435069961	1167762
3	217565	97.611275069961	1167903
3	217578	97.625115069961	1168044
3	217596	97.638955069961	1168185
3	217641	97.652795069961	1168326
3	217659	97.666635069961	1168467
3	217677	97.680475069961	1168608
3	217695	97.694315069961	1168749
3	217749	97.708155069961	1168890
3	217767	97.721995069961	1169031
3	217785	97.735835069961	1169172
3	217803	97.749675069961	1169313
3	217848	97.763515069961	1169454
3	217866	97.777355069961	1169595
3	217884	97.791195069961	1169736
3	217938	97.805035069961	1169877
3	217956	97.818875069961	1170018
3	217974	97.832715069961	1170159
3	217992	97.846555069961	1170300
3	218039	97.860395069961	1170441
3	218081	97.888075069961	1170582
3	218135	97.901915069961	1170723
3	218153	97.915755069961	1170864
3	218171	97.929595069961	1171005
3	218189	97.943435069961	1171146
3	218236	97.957275069961	1171287
3	218254	97.971115069961	1171428
3	218272	97.984955069961	1171569
3	218290	97.998795069961	1171710
3	218346	98.012635069961	1171851
3	218785	98.026475069961	1171992
3	218795	98.034981798028	1172133
3	218813	98.040315069961	1172274
3	218823	98.048821798028	1172415
3	218868	98.054155069961	1172556
3	218878	98.062661798028	1172697
3	218896	98.067995069961	1172838
3	218906	98.076501798028	1172979
3	218924	98.081835069961	1173120
3	218934	98.090341798028	1173261
3	218952	98.095675069961	1173402
3	218998	98.104181798028	1173543
3	219016	98.109515069961	1173684
3	219026	98.118021798028	1173825
3	219044	98.123355069961	1173966
3	219054	98.131861798028	1174107
3	219072	98.137195069961	1174248
3	219082	98.145701798028	1174389
3	219127	98.151035069961	1174530
3	219137	98.159541798028	1174671
3	219155	98.164875069961	1174812
3	219165	98.173381798028	1174953
3	219183	98.178715069961	1175094
3	219193	98.187221798028	1175235
3	219211	98.192555069961	1175376
3	219257	98.201061798028	1175517
3	219275	98.206395069961	1175658
3	219285	98.214901798028	1175799
3	219303	98.220235069961	1175940
3	219313	98.228741798028	1176081
3	219331	98.234075069961	1176222
3	219341	98.242581798028	1176363
3	219359	98.247915069961	1176504
3	219396	98.256421798028	1176645
3	219414	98.261755069961	1176786
3	219424	98.270261798028	1176927
3	219442	98.275595069961	1177068
3	219452	98.284101798028	1177209
3	219470	98.289435069961	1177350
3	219480	98.297941798028	1177491
3	219534	98.303275069961	1177632
3	219544	98.311781798028	1177773
3	219562	98.317115069961	1177914
3	219572	98.325621798028	1178055
3	219590	98.330955069961	1178196
3	219600	98.339461798028	1178337
3	219618	98.344795069961	1178478
3	219655	98.353301798028	1178619
3	219673	98.358635069961	1178760
3	219683	98.367141798028	1178901
3	219701	98.372475069961	1179042
3	219711	98.380981798028	1179183
3	219732	98.394821798028	1179324
3	219788	98.400155069961	1179465
3	219798	98.408661798028	1179606
3	219808	98.413995069961	1179747
3	219838	98.422501798028	1179888
3	219856	98.427835069961	1180029
3	219866	98.436341798028	1180170
3	219884	98.441675069961	1180311
3	219921	98.450181798028	1180452
3	219939	98.455515069961	1180593
3	219949	98.464021798028	1180734
3	219967	98.469355069961	1180875
3	219977	98.477861798028	1181016
3	219995	98.483195069961	1181157
3	220005	98.491701798028	1181298
3	220023	98.497035069961	1181439
3	220069	98.505541798028	1181580
3	220087	98.510875069961	1181721
3	220097	98.519381798028	1181862
3	220110	98.524715069961	1182003
3	220120	98.533221798028	1182144
3	220138	98.538555069961	1182285
3	220148	98.547061798028	1182426
3	220198	98.560901798028	1182567
3	220216	98.566235069961	1182708
3	220226	98.574741798028	1182849
3	220244	98.580075069961	1182990
3	220257	98.593915069961	1183131
3	220303	98.602421798028	1183272
3	220321	98.607755069961	1183413
3	220331	98.616261798028	1183554
3	220349	98.621595069961	1183695
3	220359	98.630101798028	1183836
3	220377	98.635435069961	1183977
3	220387	98.643941798028	1184118
3	220435	98.657781798028	1184259
3	220453	98.663115069961	1184400
3	220463	98.671621798028	1184541
3	220481	98.676955069961	1184682
3	220491	98.685461798028	1184823
3	220509	98.690795069961	1184964
3	220519	98.699301798028	1185105
3	220573	98.704635069961	1185246
3	220583	98.713141798028	1185387
3	220601	98.718475069961	1185528
3	220611	98.726981798028	1185669
3	220629	98.732315069961	1185810
3	220639	98.740821798028	1185951
3	220657	98.746155069961	1186092
3	220694	98.754661798028	1186233
3	220707	98.759995069961	1186374
3	220717	98.768501798028	1186515
3	220735	98.773835069961	1186656
3	220745	98.782341798028	1186797
3	220763	98.787675069961	1186938
3	220773	98.796181798028	1187079
3	220827	98.801515069961	1187220
3	220837	98.810021798028	1187361
3	220855	98.815355069961	1187502
3	220865	98.823861798028	1187643
3	220883	98.829195069961	1187784
3	220893	98.837701798028	1187925
3	220911	98.843035069961	1188066
3	220948	98.851541798028	1188207
3	220966	98.856875069961	1188348
3	220976	98.865381798028	1188489
3	220994	98.870715069961	1188630
3	221004	98.879221798028	1188771
3	221022	98.884555069961	1188912
3	221032	98.893061798028	1189053
3	221050	98.898395069961	1189194
3	221096	98.906901798028	1189335
3	221114	98.912235069961	1189476
3	221124	98.920741798028	1189617
3	221142	98.926075069961	1189758
3	221152	98.934581798028	1189899
3	221170	98.939915069961	1190040
3	221180	98.948421798028	1190181
3	221225	98.953755069961	1190322
3	221235	98.962261798028	1190463
3	221253	98.967595069961	1190604
3	221263	98.976101798028	1190745
3	221281	98.981435069961	1190886
3	221291	98.989941798028	1191027
3	221309	98.995275069961	1191168
3	221355	99.003781798028	1191309
3	221373	99.009115069961	1191450
3	221383	99.017621798028	1191591
3	221401	99.022955069961	1191732
3	221411	99.031461798028	1191873
3	221432	99.045301798028	1192014
3	221472	99.050635069961	1192155
3	221482	99.059141798028	1192296
3	221500	99.064475069961	1192437
3	221510	99.072981798028	1192578
3	221528	99.078315069961	1192719
3	221538	99.086821798028	1192860
3	221556	99.092155069961	1193001
3	221602	99.100661798028	1193142
3	221620	99.105995069961	1193283
3	221630	99.114501798028	1193424
3	221648	99.119835069961	1193565
3	221658	99.128341798028	1193706
3	221676	99.133675069961	1193847
3	221686	99.142181798028	1193988
3	221704	99.147515069961	1194129
3	221743	99.156021798028	1194270
3	221761	99.161355069961	1194411
3	221771	99.169861798028	1194552
3	221784	99.175195069961	1194693
3	221794	99.183701798028	1194834
3	221812	99.189035069961	1194975
3	221822	99.197541798028	1195116
3	221876	99.202875069961	1195257
3	221886	99.211381798028	1195398
3	221904	99.216715069961	1195539
3	221914	99.225221798028	1195680
3	221927	99.230555069961	1195821
3	221937	99.239061798028	1195962
3	221955	99.244395069961	1196103
3	221992	99.252901798028	1196244
3	222005	99.258235069961	1196385
3	222015	99.266741798028	1196526
3	222033	99.272075069961	1196667
3	222043	99.280581798028	1196808
3	222061	99.285915069961	1196949
3	222071	99.294421798028	1197090
3	222089	99.299755069961	1197231
3	222135	99.308261798028	1197372
3	222153	99.313595069961	1197513
3	222163	99.322101798028	1197654
3	222181	99.327435069961	1197795
3	222191	99.335941798028	1197936
3	222204	99.341275069961	1198077
3	222214	99.349781798028	1198218
3	222259	99.355115069961	1198359
3	222272	99.368955069961	1198500
3	222282	99.377461798028	1198641
3	222300	99.382795069961	1198782
3	222310	99.391301798028	1198923
3	222328	99.396635069961	1199064
3	222374	99.405141798028	1199205
3	222392	99.410475069961	1199346
3	222402	99.418981798028	1199487
3	222420	99.424315069961	1199628
3	222430	99.432821798028	1199769
3	222448	99.438155069961	1199910
3	222458	99.446661798028	1200051
3	222503	99.451995069961	1200192
3	222513	99.460501798028	1200333
3	222531	99.465835069961	1200474
3	222541	99.474341798028	1200615
3	222559	99.479675069961	1200756
3	222569	99.488181798028	1200897
3	222587	99.493515069961	1201038
3	222633	99.502021798028	1201179
3	222651	99.507355069961	1201320
3	222661	99.515861798028	1201461
3	222679	99.521195069961	1201602
3	222689	99.529701798028	1201743
3	222707	99.535035069961	1201884
3	222717	99.543541798028	1202025
3	222735	99.548875069961	1202166
3	222774	99.557381798028	1202307
3	222792	99.562715069961	1202448
3	222802	99.571221798028	1202589
3	222820	99.576555069961	1202730
3	222830	99.585061798028	1202871
3	222848	99.590395069961	1203012
3	222897	99.604235069961	1203153
3	222907	99.612741798028	1203294
3	222928	99.626581798028	1203435
3	222946	99.631915069961	1203576
3	222956	99.640421798028	1203717
3	222974	99.645755069961	1203858
3	223011	99.654261798028	1203999
3	223029	99.659595069961	1204140
3	223039	99.668101798028	1204281
3	223052	99.673435069961	1204422
3	223062	99.681941798028	1204563
3	223080	99.687275069961	1204704
3	223090	99.695781798028	1204845
3	223144	99.701115069961	1204986
3	223157	99.714955069961	1205127
3	223167	99.723461798028	1205268
3	223185	99.728795069961	1205409
3	223195	99.737301798028	1205550
3	223213	99.742635069961	1205691
3	223250	99.751141798028	1205832
3	223268	99.756475069961	1205973
3	223278	99.764981798028	1206114
3	223299	99.778821798028	1206255
3	223320	99.792661798028	1206396
3	223338	99.797995069961	1206537
3	223384	99.806501798028	1206678
3	223408	99.825675069961	1206819
3	223418	99.834181798028	1206960
3	223431	99.839515069961	1207101
3	223441	99.848021798028	1207242
3	223486	99.853355069961	1207383
3	223496	99.861861798028	1207524
3	223514	99.867195069961	1207665
3	223524	99.875701798028	1207806
3	223542	99.881035069961	1207947
3	223552	99.889541798028	1208088
3	223570	99.894875069961	1208229
3	223616	99.903381798028	1208370
3	223634	99.908715069961	1208511
3	223644	99.917221798028	1208652
3	223662	99.922555069961	1208793
3	223672	99.931061798028	1208934
3	223690	99.936395069961	1209075
3	223700	99.944901798028	1209216
3	223745	99.950235069961	1209357
3	223755	99.958741798028	1209498
3	223773	99.964075069961	1209639
3	223783	99.972581798028	1209780
3	223801	99.977915069961	1209921
3	223811	99.986421798028	1210062
3	223829	99.991755069961	1210203

