version 2
run A2gw-0-20191027-00:50:19-21701
attr configname A2gw
attr datetime 20191027-00:50:19
attr experiment A2gw
attr inifile DanTests.ini
attr iterationvars ""
attr iterationvarsf ""
attr measurement ""
attr network NetworkTormV2
attr processid 21701
attr repetition 0
attr replication #0
attr resultdir results
attr runnumber 0
attr seedset 0
param **.mobility.traceFile "\"paths/A.movements\""
param **.numNodes 3
param **.wirelessIfc.wirelessRange 25m
param **.bluetoothIfc.wirelessRange 25m
param **application.destinationAddr "\"Wf:00:00:00:00:02\""
param **application.destinationBTAddr "\"Bt:00:00:00:00:02\""
param **application.nodesThatGen true
param **application.nodesGenMsg "\"0,1\""
param **application.startMultipleMsg true
param **application.numMultipleMsg 100
param **application.hopsListSize 50
param **.routingLayer "\"pamulqe\""
param **.routing.maximumCacheSize 5000byte
param **.routing.maximumHopCount 25
param **.routing.useTTL false
param **.routing.waitBFsend 0.1
param **.routing.max_age 999999s
param **.routing.gateway_list "\"\""
param **.routing.actual_gateway "\"\""
param **.routing.gwCheckPeriod 5s
param **.neighboring.resetGPeriod 999s
param **.wirelessIfc.wirelessRange 40m
param **.numNodes 2
param **.application.usedRNG 1
param **.application.dataGenerationInterval 1ms
param **.application.dataSizeInBytes 10
param **.application.ttl 999999s
param **application.destinationAddr "\"Wf:00:00:00:00:02\""
param **application.destinationBTAddr "\"Bt:00:00:00:00:02\""
param **application.nodesThatGen true
param **application.nodesGenMsg "\"0\""
param **application.startMultipleMsg true
param **application.numMultipleMsg 100
param **application.hopsListSize 50
param **.application.endGeneratingMsg 999999s
param **.routingLayer "\"RoutingLqeGw\""
param **.routing.maximumCacheSize 5000byte
param **.routing.maximumHopCount 25
param **.routing.useTTL false
param **.routing.waitBFsend 0.5
param **.routing.max_age 999999s
param **.routing.gateway_list "\"Wf:00:00:00:00:02;0|.\""
param **.routing.actual_gateway "\"Wf:00:00:00:00:02\""
param **.routing.gwCheckPeriod 5s
param **.neighboring.antiEntropyInterval 500ms
param **.neighboring.maximumRandomBackoffDuration 1s
param **.neighboring.delayPerDataMsg 0.1
param **neighboring.usedRNG 2
param **.neighboring.GWAddr "\"Wf:00:00:00:00:02\""
param **.neighboring.sendWifiFirst true
param **.neighboring.maxLengthGraph 20
param **.neighboring.max_age 999999s
param **.neighboring.max_absent_time 1s
param **.wirelessIfc.wirelessRange 40m
param **.wirelessIfc.neighbourScanInterval 50ms
param **.wirelessIfc.bandwidthBitRate 100000bps
param **.wirelessIfc.wirelessHeaderSize 32byte
param **.wirelessIfc.minSSI -90
param **.wirelessIfc.limitQueueTime 400ms
param **.wirelessIfc.my_limit_rate 0bps
param **.bluetoothIfc.wirelessRange 40m
param **.bluetoothIfc.neighbourScanInterval 100ms
param **.bluetoothIfc.bandwidthBitRate 100000bps
param **.bluetoothIfc.wirelessHeaderSize 16byte
param **.bluetoothIfc.minSSI -90
param **.mobilityType "\"BonnMotionMobility\""
param **.mobility.traceFile "\"paths/Moves2.movements\""
param **.mobility.is3D false
param **.mobility.nodeId -1

vector 0 NetworkTormV2 neighbourhoodSize:vector ETV
attr source neighbourhoodSize
vector 1 NetworkTormV2 deliveryRatio:vector ETV
attr source sum(totalDataBytesReceived)/sum(totalDataBytesReceivableByAllNodes)
vector 2 NetworkTormV2 dataBytesReceivedSum:vector ETV
attr source sum(dataBytesReceived)
vector 3 NetworkTormV2 totalBytesReceivedSum:vector ETV
attr source sum(totalBytesReceived)
0	10	0.05	1
0	11	0.05	2
0	12	0.05	1
0	38	0.1	1
0	40	0.1	2
0	41	0.1	1
0	42	0.1	1
0	43	0.1	2
0	44	0.1	1
0	273	0.15	1
0	274	0.15	2
0	275	0.15	1
0	500	0.2	1
0	501	0.2	2
0	502	0.2	1
0	503	0.2	1
0	504	0.2	2
0	505	0.2	1
0	536	0.25	1
0	537	0.25	2
0	538	0.25	1
0	563	0.3	1
0	564	0.3	2
0	565	0.3	1
0	566	0.3	1
0	567	0.3	2
0	568	0.3	1
0	599	0.35	1
0	600	0.35	2
0	601	0.35	1
0	626	0.4	1
0	627	0.4	2
0	628	0.4	1
0	629	0.4	1
0	630	0.4	2
0	631	0.4	1
0	662	0.45	1
0	663	0.45	2
0	664	0.45	1
0	689	0.5	1
0	690	0.5	2
0	691	0.5	1
0	692	0.5	1
0	693	0.5	2
0	694	0.5	1
0	725	0.55	1
0	726	0.55	2
0	727	0.55	1
0	752	0.6	1
0	753	0.6	2
0	754	0.6	1
0	755	0.6	1
0	756	0.6	2
0	757	0.6	1
0	788	0.65	1
0	789	0.65	2
0	790	0.65	1
0	815	0.7	1
0	816	0.7	2
0	817	0.7	1
0	818	0.7	1
0	819	0.7	2
0	820	0.7	1
0	851	0.75	1
0	852	0.75	2
0	853	0.75	1
0	878	0.8	1
0	879	0.8	2
0	880	0.8	1
0	881	0.8	1
0	882	0.8	2
0	883	0.8	1
0	914	0.85	1
0	915	0.85	2
0	916	0.85	1
0	941	0.9	1
0	942	0.9	2
0	943	0.9	1
0	944	0.9	1
0	945	0.9	2
0	946	0.9	1
0	977	0.95	1
0	978	0.95	2
0	979	0.95	1
0	1004	1	1
0	1005	1	2
0	1006	1	1
0	1007	1	1
0	1008	1	2
0	1009	1	1
0	1040	1.05	1
0	1041	1.05	2
0	1042	1.05	1
0	1067	1.1	1
0	1068	1.1	2
0	1069	1.1	1
0	1070	1.1	1
0	1071	1.1	2
0	1072	1.1	1
0	1195	1.15	1
0	1196	1.15	2
0	1197	1.15	1
0	1222	1.2	1
0	1223	1.2	2
0	1224	1.2	1
0	1225	1.2	1
0	1226	1.2	2
0	1227	1.2	1
0	1258	1.25	1
0	1259	1.25	2
0	1260	1.25	1
0	1285	1.3	1
0	1286	1.3	2
0	1287	1.3	1
0	1288	1.3	1
0	1289	1.3	2
0	1290	1.3	1
0	1321	1.35	1
0	1322	1.35	2
0	1323	1.35	1
0	1348	1.4	1
0	1349	1.4	2
0	1350	1.4	1
0	1351	1.4	1
0	1352	1.4	2
0	1353	1.4	1
0	1384	1.45	1
0	1385	1.45	2
0	1386	1.45	1
0	1411	1.5	1
0	1412	1.5	2
0	1413	1.5	1
0	1414	1.5	1
0	1415	1.5	2
0	1416	1.5	1
0	1447	1.55	1
0	1448	1.55	2
0	1449	1.55	1
0	1474	1.6	1
0	1475	1.6	2
0	1476	1.6	1
0	1477	1.6	1
0	1478	1.6	2
0	1479	1.6	1
0	1510	1.65	1
0	1511	1.65	2
0	1512	1.65	1
0	1629	1.7	1
0	1630	1.7	2
0	1631	1.7	1
0	1632	1.7	1
0	1633	1.7	2
0	1634	1.7	1
0	1665	1.75	1
0	1666	1.75	2
0	1667	1.75	1
0	1692	1.8	1
0	1693	1.8	2
0	1694	1.8	1
0	1695	1.8	1
0	1696	1.8	2
0	1697	1.8	1
0	1728	1.85	1
0	1729	1.85	2
0	1730	1.85	1
0	1755	1.9	1
0	1756	1.9	2
0	1757	1.9	1
0	1758	1.9	1
0	1759	1.9	2
0	1760	1.9	1
0	1791	1.95	1
0	1792	1.95	2
0	1793	1.95	1
0	1818	2	1
0	1819	2	2
0	1820	2	1
0	1821	2	1
0	1822	2	2
0	1823	2	1
0	1854	2.05	1
0	1855	2.05	2
0	1856	2.05	1
0	1881	2.1	1
0	1882	2.1	2
0	1883	2.1	1
0	1884	2.1	1
0	1885	2.1	2
0	1886	2.1	1
0	1917	2.15	1
0	1918	2.15	2
0	1919	2.15	1
0	1944	2.2	1
0	1945	2.2	2
0	1946	2.2	1
0	1947	2.2	1
0	1948	2.2	2
0	1949	2.2	1
0	2072	2.25	1
0	2073	2.25	2
0	2074	2.25	1
0	2099	2.3	1
0	2100	2.3	2
0	2101	2.3	1
0	2102	2.3	1
0	2103	2.3	2
0	2104	2.3	1
0	2135	2.35	1
0	2136	2.35	2
0	2137	2.35	1
0	2162	2.4	1
0	2163	2.4	2
0	2164	2.4	1
0	2165	2.4	1
0	2166	2.4	2
0	2167	2.4	1
0	2198	2.45	1
0	2199	2.45	2
0	2200	2.45	1
0	2225	2.5	1
0	2226	2.5	2
0	2227	2.5	1
0	2228	2.5	1
0	2229	2.5	2
0	2230	2.5	1
0	2261	2.55	1
0	2262	2.55	2
0	2263	2.55	1
0	2288	2.6	1
0	2289	2.6	2
0	2290	2.6	1
0	2291	2.6	1
0	2292	2.6	2
0	2293	2.6	1
0	2324	2.65	1
0	2325	2.65	2
0	2326	2.65	1
0	2351	2.7	1
0	2352	2.7	2
0	2353	2.7	1
0	2354	2.7	1
0	2355	2.7	2
0	2356	2.7	1
0	2387	2.75	1
0	2388	2.75	2
0	2389	2.75	1
0	2506	2.8	1
0	2507	2.8	2
0	2508	2.8	1
0	2509	2.8	1
0	2510	2.8	2
0	2511	2.8	1
0	2542	2.85	1
0	2543	2.85	2
0	2544	2.85	1
0	2569	2.9	1
0	2570	2.9	2
0	2571	2.9	1
0	2572	2.9	1
0	2573	2.9	2
0	2574	2.9	1
0	2605	2.95	1
0	2606	2.95	2
0	2607	2.95	1
0	2632	3	1
0	2633	3	2
0	2634	3	1
0	2635	3	1
0	2636	3	2
0	2637	3	1
0	2668	3.05	1
0	2669	3.05	2
0	2670	3.05	1
0	2695	3.1	1
0	2696	3.1	2
0	2697	3.1	1
0	2698	3.1	1
0	2699	3.1	2
0	2700	3.1	1
0	2731	3.15	1
0	2732	3.15	2
0	2733	3.15	1
0	2758	3.2	1
0	2759	3.2	2
0	2760	3.2	1
0	2761	3.2	1
0	2762	3.2	2
0	2763	3.2	1
0	2794	3.25	1
0	2795	3.25	2
0	2796	3.25	1
0	2821	3.3	1
0	2822	3.3	2
0	2823	3.3	1
0	2824	3.3	1
0	2825	3.3	2
0	2826	3.3	1
0	2949	3.35	1
0	2950	3.35	2
0	2951	3.35	1
0	2976	3.4	1
0	2977	3.4	2
0	2978	3.4	1
0	2979	3.4	1
0	2980	3.4	2
0	2981	3.4	1
0	3012	3.45	1
0	3013	3.45	2
0	3014	3.45	1
0	3039	3.5	1
0	3040	3.5	2
0	3041	3.5	1
0	3042	3.5	1
0	3043	3.5	2
0	3044	3.5	1
0	3075	3.55	1
0	3076	3.55	2
0	3077	3.55	1
0	3102	3.6	1
0	3103	3.6	2
0	3104	3.6	1
0	3105	3.6	1
0	3106	3.6	2
0	3107	3.6	1
0	3138	3.65	1
0	3139	3.65	2
0	3140	3.65	1
0	3165	3.7	1
0	3166	3.7	2
0	3167	3.7	1
0	3168	3.7	1
0	3169	3.7	2
0	3170	3.7	1
0	3201	3.75	1
0	3202	3.75	2
0	3203	3.75	1
0	3228	3.8	1
0	3229	3.8	2
0	3230	3.8	1
0	3231	3.8	1
0	3232	3.8	2
0	3233	3.8	1
0	3264	3.85	1
0	3265	3.85	2
0	3266	3.85	1
0	3377	3.9	1
0	3378	3.9	2
0	3379	3.9	1
0	3380	3.9	1
0	3381	3.9	2
0	3382	3.9	1
0	3413	3.95	1
0	3414	3.95	2
0	3415	3.95	1
0	3440	4	1
0	3441	4	2
0	3442	4	1
0	3443	4	1
0	3444	4	2
0	3445	4	1
0	3476	4.05	1
0	3477	4.05	2
0	3478	4.05	1
0	3503	4.1	1
0	3504	4.1	2
0	3505	4.1	1
0	3506	4.1	1
0	3507	4.1	2
0	3508	4.1	1
0	3539	4.15	1
0	3540	4.15	2
0	3541	4.15	1
0	3566	4.2	1
0	3567	4.2	2
0	3568	4.2	1
0	3569	4.2	1
0	3570	4.2	2
0	3571	4.2	1
0	3602	4.25	1
0	3603	4.25	2
0	3604	4.25	1
0	3629	4.3	1
0	3630	4.3	2
0	3631	4.3	1
0	3632	4.3	1
0	3633	4.3	2
0	3634	4.3	1
0	3665	4.35	1
0	3666	4.35	2
0	3667	4.35	1
0	3692	4.4	1
0	3693	4.4	2
0	3694	4.4	1
0	3695	4.4	1
0	3696	4.4	2
0	3697	4.4	1
0	3820	4.45	1
0	3821	4.45	2
0	3822	4.45	1
0	3847	4.5	1
0	3848	4.5	2
0	3849	4.5	1
0	3850	4.5	1
0	3851	4.5	2
0	3852	4.5	1
0	3883	4.55	1
0	3884	4.55	2
0	3885	4.55	1
0	3910	4.6	1
0	3911	4.6	2
0	3912	4.6	1
0	3913	4.6	1
0	3914	4.6	2
0	3915	4.6	1
0	3946	4.65	1
0	3947	4.65	2
0	3948	4.65	1
0	3973	4.7	1
0	3974	4.7	2
0	3975	4.7	1
0	3976	4.7	1
0	3977	4.7	2
0	3978	4.7	1
0	4009	4.75	1
0	4010	4.75	2
0	4011	4.75	1
0	4036	4.8	1
0	4037	4.8	2
0	4038	4.8	1
0	4039	4.8	1
0	4040	4.8	2
0	4041	4.8	1
0	4072	4.85	1
0	4073	4.85	2
0	4074	4.85	1
0	4099	4.9	1
0	4100	4.9	2
0	4101	4.9	1
0	4102	4.9	1
0	4103	4.9	2
0	4104	4.9	1
0	4135	4.95	1
0	4136	4.95	2
0	4137	4.95	1
0	4239	5	1
0	4240	5	2
0	4241	5	1
0	4242	5	1
0	4243	5	2
0	4244	5	1
0	4275	5.05	1
0	4276	5.05	2
0	4277	5.05	1
0	4302	5.1	1
0	4303	5.1	2
0	4304	5.1	1
0	4305	5.1	1
0	4306	5.1	2
0	4307	5.1	1
0	4338	5.15	1
0	4339	5.15	2
0	4340	5.15	1
0	4365	5.2	1
0	4366	5.2	2
0	4367	5.2	1
0	4368	5.2	1
0	4369	5.2	2
0	4370	5.2	1
0	4401	5.25	1
0	4402	5.25	2
0	4403	5.25	1
0	4428	5.3	1
0	4429	5.3	2
0	4430	5.3	1
0	4431	5.3	1
0	4432	5.3	2
0	4433	5.3	1
0	4464	5.35	1
0	4465	5.35	2
0	4466	5.35	1
0	4491	5.4	1
0	4492	5.4	2
0	4493	5.4	1
0	4494	5.4	1
0	4495	5.4	2
0	4496	5.4	1
0	4527	5.45	1
0	4528	5.45	2
0	4529	5.45	1
0	4554	5.5	1
0	4555	5.5	2
0	4556	5.5	1
0	4557	5.5	1
0	4558	5.5	2
0	4559	5.5	1
0	4880	5.55	1
0	4881	5.55	2
0	4882	5.55	1
0	4961	5.6	1
0	4962	5.6	2
0	4963	5.6	1
0	4964	5.6	1
0	4965	5.6	2
0	4966	5.6	1
0	5069	5.65	1
0	5070	5.65	2
0	5071	5.65	1
0	5177	5.7	1
0	5178	5.7	2
0	5179	5.7	1
0	5180	5.7	1
0	5181	5.7	2
0	5182	5.7	1
0	5260	5.75	1
0	5261	5.75	2
0	5262	5.75	1
0	5354	5.8	1
0	5355	5.8	2
0	5356	5.8	1
0	5357	5.8	1
0	5358	5.8	2
0	5359	5.8	1
0	5444	5.85	1
0	5445	5.85	2
0	5446	5.85	1
0	5543	5.9	1
0	5544	5.9	2
0	5545	5.9	1
0	5546	5.9	1
0	5547	5.9	2
0	5548	5.9	1
0	5638	5.95	1
0	5639	5.95	2
0	5640	5.95	1
0	5722	6	1
0	5723	6	2
0	5724	6	1
0	5725	6	1
0	5726	6	2
0	5727	6	1
0	5830	6.05	1
0	5831	6.05	2
0	5832	6.05	1
0	5935	6.1	1
0	5936	6.1	2
0	5937	6.1	1
0	5938	6.1	1
0	5939	6.1	2
0	5940	6.1	1
0	6043	6.15	1
0	6044	6.15	2
0	6045	6.15	1
0	6134	6.2	1
0	6135	6.2	2
0	6136	6.2	1
0	6137	6.2	1
0	6138	6.2	2
0	6139	6.2	1
0	6563	6.25	1
0	6564	6.25	2
0	6565	6.25	1
0	6695	6.3	1
0	6696	6.3	2
0	6697	6.3	1
0	6698	6.3	1
0	6699	6.3	2
0	6700	6.3	1
0	6821	6.35	1
0	6822	6.35	2
0	6823	6.35	1
0	6945	6.4	1
0	6946	6.4	2
0	6947	6.4	1
0	6948	6.4	1
0	6949	6.4	2
0	6950	6.4	1
0	7081	6.45	1
0	7082	6.45	2
0	7083	6.45	1
0	7209	6.5	1
0	7210	6.5	2
0	7211	6.5	1
0	7212	6.5	1
0	7213	6.5	2
0	7214	6.5	1
0	7335	6.55	1
0	7336	6.55	2
0	7337	6.55	1
0	7473	6.6	1
0	7474	6.6	2
0	7475	6.6	1
0	7476	6.6	1
0	7477	6.6	2
0	7478	6.6	1
0	7623	6.65	1
0	7624	6.65	2
0	7625	6.65	1
0	7750	6.7	1
0	7751	6.7	2
0	7752	6.7	1
0	7753	6.7	1
0	7754	6.7	2
0	7755	6.7	1
0	7892	6.75	1
0	7893	6.75	2
0	7894	6.75	1
0	7992	6.8	1
0	7993	6.8	2
0	7994	6.8	1
0	7995	6.8	1
0	7996	6.8	2
0	7997	6.8	1
0	8144	6.85	1
0	8145	6.85	2
0	8146	6.85	1
0	8269	6.9	1
0	8270	6.9	2
0	8271	6.9	1
0	8272	6.9	1
0	8273	6.9	2
0	8274	6.9	1
0	8398	6.95	1
0	8399	6.95	2
0	8400	6.95	1
0	8485	7	1
0	8486	7	2
0	8487	7	1
0	8488	7	1
0	8489	7	2
0	8490	7	1
0	8578	7.05	1
0	8579	7.05	2
0	8580	7.05	1
0	8667	7.1	1
0	8668	7.1	2
0	8669	7.1	1
0	8670	7.1	1
0	8671	7.1	2
0	8672	7.1	1
0	8771	7.15	1
0	8772	7.15	2
0	8773	7.15	1
0	8831	7.2	1
0	8832	7.2	2
0	8833	7.2	1
0	8834	7.2	1
0	8835	7.2	2
0	8836	7.2	1
0	8938	7.25	1
0	8939	7.25	2
0	8940	7.25	1
0	9033	7.3	1
0	9034	7.3	2
0	9035	7.3	1
0	9036	7.3	1
0	9037	7.3	2
0	9038	7.3	1
0	9134	7.35	1
0	9135	7.35	2
0	9136	7.35	1
0	9237	7.4	1
0	9238	7.4	2
0	9239	7.4	1
0	9240	7.4	1
0	9241	7.4	2
0	9242	7.4	1
0	9330	7.45	1
0	9331	7.45	2
0	9332	7.45	1
0	9433	7.5	1
0	9434	7.5	2
0	9435	7.5	1
0	9436	7.5	1
0	9437	7.5	2
0	9438	7.5	1
0	9521	7.55	1
0	9522	7.55	2
0	9523	7.55	1
0	9613	7.6	1
0	9614	7.6	2
0	9615	7.6	1
0	9616	7.6	1
0	9617	7.6	2
0	9618	7.6	1
0	9720	7.65	1
0	9721	7.65	2
0	9722	7.65	1
0	9799	7.7	1
0	9800	7.7	2
0	9801	7.7	1
0	9802	7.7	1
0	9803	7.7	2
0	9804	7.7	1
0	9906	7.75	1
0	9907	7.75	2
0	9908	7.75	1
0	10001	7.8	1
0	10002	7.8	2
0	10003	7.8	1
0	10004	7.8	1
0	10005	7.8	2
0	10006	7.8	1
0	10102	7.85	1
0	10103	7.85	2
0	10104	7.85	1
0	10184	7.9	1
0	10185	7.9	2
0	10186	7.9	1
0	10187	7.9	1
0	10188	7.9	2
0	10189	7.9	1
0	10277	7.95	1
0	10278	7.95	2
0	10279	7.95	1
0	10380	8	1
0	10381	8	2
0	10382	8	1
0	10383	8	1
0	10384	8	2
0	10385	8	1
0	10492	8.05	1
0	10493	8.05	2
0	10494	8.05	1
0	10576	8.1	1
0	10577	8.1	2
0	10578	8.1	1
0	10579	8.1	1
0	10580	8.1	2
0	10581	8.1	1
0	10672	8.15	1
0	10673	8.15	2
0	10674	8.15	1
0	10795	8.2	1
0	10796	8.2	2
0	10797	8.2	1
0	10798	8.2	1
0	10799	8.2	2
0	10800	8.2	1
0	10896	8.25	1
0	10897	8.25	2
0	10898	8.25	1
0	10977	8.3	1
0	10978	8.3	2
0	10979	8.3	1
0	10980	8.3	1
0	10981	8.3	2
0	10982	8.3	1
0	11074	8.35	1
0	11075	8.35	2
0	11076	8.35	1
0	11140	8.4	1
0	11141	8.4	2
0	11142	8.4	1
0	11143	8.4	1
0	11144	8.4	2
0	11145	8.4	1
0	11341	8.45	1
0	11342	8.45	2
0	11343	8.45	1
0	11636	8.5	1
0	11637	8.5	2
0	11638	8.5	1
0	11639	8.5	1
0	11640	8.5	2
0	11641	8.5	1
0	11759	8.55	1
0	11760	8.55	2
0	11761	8.55	1
0	11902	8.6	1
0	11903	8.6	2
0	11904	8.6	1
0	11905	8.6	1
0	11906	8.6	2
0	11907	8.6	1
0	12036	8.65	1
0	12037	8.65	2
0	12038	8.65	1
0	12168	8.7	1
0	12169	8.7	2
0	12170	8.7	1
0	12171	8.7	1
0	12172	8.7	2
0	12173	8.7	1
0	12336	8.75	1
0	12337	8.75	2
0	12338	8.75	1
0	12450	8.8	1
0	12451	8.8	2
0	12452	8.8	1
0	12453	8.8	1
0	12454	8.8	2
0	12455	8.8	1
0	12595	8.85	1
0	12596	8.85	2
0	12597	8.85	1
0	12722	8.9	1
0	12723	8.9	2
0	12724	8.9	1
0	12725	8.9	1
0	12726	8.9	2
0	12727	8.9	1
0	12863	8.95	1
0	12864	8.95	2
0	12865	8.95	1
0	12990	9	1
0	12991	9	2
0	12992	9	1
0	12993	9	1
0	12994	9	2
0	12995	9	1
0	13097	9.05	1
0	13098	9.05	2
0	13099	9.05	1
0	13240	9.1	1
0	13241	9.1	2
0	13242	9.1	1
0	13243	9.1	1
0	13244	9.1	2
0	13245	9.1	1
0	13371	9.15	1
0	13372	9.15	2
0	13373	9.15	1
0	13493	9.2	1
0	13494	9.2	2
0	13495	9.2	1
0	13496	9.2	1
0	13497	9.2	2
0	13498	9.2	1
0	13608	9.25	1
0	13609	9.25	2
0	13610	9.25	1
0	13703	9.3	1
0	13704	9.3	2
0	13705	9.3	1
0	13706	9.3	1
0	13707	9.3	2
0	13708	9.3	1
0	13804	9.35	1
0	13805	9.35	2
0	13806	9.35	1
0	13906	9.4	1
0	13907	9.4	2
0	13908	9.4	1
0	13909	9.4	1
0	13910	9.4	2
0	13911	9.4	1
0	13999	9.45	1
0	14000	9.45	2
0	14001	9.45	1
0	14071	9.5	1
0	14072	9.5	2
0	14073	9.5	1
0	14074	9.5	1
0	14075	9.5	2
0	14076	9.5	1
0	14177	9.55	1
0	14178	9.55	2
0	14179	9.55	1
0	14204	9.6	1
0	14205	9.6	2
0	14206	9.6	1
0	14207	9.6	1
0	14208	9.6	2
0	14209	9.6	1
0	14240	9.65	1
0	14241	9.65	2
0	14242	9.65	1
0	14267	9.7	1
0	14268	9.7	2
0	14269	9.7	1
0	14270	9.7	1
0	14271	9.7	2
0	14272	9.7	1
0	14303	9.75	1
0	14304	9.75	2
0	14305	9.75	1
0	14330	9.8	1
0	14331	9.8	2
0	14332	9.8	1
0	14333	9.8	1
0	14334	9.8	2
0	14335	9.8	1
0	14366	9.85	1
0	14367	9.85	2
0	14368	9.85	1
0	14393	9.9	1
0	14394	9.9	2
0	14395	9.9	1
0	14396	9.9	1
0	14397	9.9	2
0	14398	9.9	1
0	14452	9.95	1
0	14453	9.95	2
0	14454	9.95	1
0	14479	10	1
0	14480	10	2
0	14481	10	1
0	14482	10	1
0	14483	10	2
0	14484	10	1
0	14515	10.05	1
0	14516	10.05	2
0	14517	10.05	1
0	14691	10.1	1
0	14692	10.1	2
0	14693	10.1	1
0	14694	10.1	1
0	14695	10.1	2
0	14696	10.1	1
0	14789	10.15	1
0	14790	10.15	2
0	14791	10.15	1
0	14888	10.2	1
0	14889	10.2	2
0	14890	10.2	1
0	14891	10.2	1
0	14892	10.2	2
0	14893	10.2	1
0	14988	10.25	1
0	14989	10.25	2
0	14990	10.25	1
0	15072	10.3	1
0	15073	10.3	2
0	15074	10.3	1
0	15075	10.3	1
0	15076	10.3	2
0	15077	10.3	1
0	15198	10.35	1
0	15199	10.35	2
0	15200	10.35	1
0	15264	10.4	1
0	15265	10.4	2
0	15266	10.4	1
0	15267	10.4	1
0	15268	10.4	2
0	15269	10.4	1
0	15372	10.45	1
0	15373	10.45	2
0	15374	10.45	1
0	15552	10.5	1
0	15553	10.5	2
0	15554	10.5	1
0	15555	10.5	1
0	15556	10.5	2
0	15557	10.5	1
0	15678	10.55	1
0	15679	10.55	2
0	15680	10.55	1
0	15821	10.6	1
0	15822	10.6	2
0	15823	10.6	1
0	15824	10.6	1
0	15825	10.6	2
0	15826	10.6	1
0	15946	10.65	1
0	15947	10.65	2
0	15948	10.65	1
0	16082	10.7	1
0	16083	10.7	2
0	16084	10.7	1
0	16085	10.7	1
0	16086	10.7	2
0	16087	10.7	1
0	16203	10.75	1
0	16204	10.75	2
0	16205	10.75	1
0	16316	10.8	1
0	16317	10.8	2
0	16318	10.8	1
0	16319	10.8	1
0	16320	10.8	2
0	16321	10.8	1
0	16428	10.85	1
0	16429	10.85	2
0	16430	10.85	1
0	16537	10.9	1
0	16538	10.9	2
0	16539	10.9	1
0	16540	10.9	1
0	16541	10.9	2
0	16542	10.9	1
0	16663	10.95	1
0	16664	10.95	2
0	16665	10.95	1
0	16782	11	1
0	16783	11	2
0	16784	11	1
0	16785	11	1
0	16786	11	2
0	16787	11	1
0	16905	11.05	1
0	16906	11.05	2
0	16907	11.05	1
0	16989	11.1	1
0	16990	11.1	2
0	16991	11.1	1
0	16992	11.1	1
0	16993	11.1	2
0	16994	11.1	1
0	17075	11.15	1
0	17076	11.15	2
0	17077	11.15	1
0	17173	11.2	1
0	17174	11.2	2
0	17175	11.2	1
0	17176	11.2	1
0	17177	11.2	2
0	17178	11.2	1
0	17285	11.25	1
0	17286	11.25	2
0	17287	11.25	1
0	17380	11.3	1
0	17381	11.3	2
0	17382	11.3	1
0	17383	11.3	1
0	17384	11.3	2
0	17385	11.3	1
0	17507	11.35	1
0	17508	11.35	2
0	17509	11.35	1
0	17598	11.4	1
0	17599	11.4	2
0	17600	11.4	1
0	17601	11.4	1
0	17602	11.4	2
0	17603	11.4	1
0	17719	11.45	1
0	17720	11.45	2
0	17721	11.45	1
0	17746	11.5	1
0	17747	11.5	2
0	17748	11.5	1
0	17749	11.5	1
0	17750	11.5	2
0	17751	11.5	1
0	17782	11.55	1
0	17783	11.55	2
0	17784	11.55	1
0	17849	11.6	1
0	17850	11.6	2
0	17851	11.6	1
0	17852	11.6	1
0	17853	11.6	2
0	17854	11.6	1
0	17885	11.65	1
0	17886	11.65	2
0	17887	11.65	1
0	17912	11.7	1
0	17913	11.7	2
0	17914	11.7	1
0	17915	11.7	1
0	17916	11.7	2
0	17917	11.7	1
0	17971	11.75	1
0	17972	11.75	2
0	17973	11.75	1
0	17998	11.8	1
0	17999	11.8	2
0	18000	11.8	1
0	18001	11.8	1
0	18002	11.8	2
0	18003	11.8	1
0	18034	11.85	1
0	18035	11.85	2
0	18036	11.85	1
0	18061	11.9	1
0	18062	11.9	2
0	18063	11.9	1
0	18064	11.9	1
0	18065	11.9	2
0	18066	11.9	1
0	18097	11.95	1
0	18098	11.95	2
0	18099	11.95	1
0	18147	12	1
0	18148	12	2
0	18149	12	1
0	18150	12	1
0	18151	12	2
0	18152	12	1
0	18183	12.05	1
0	18184	12.05	2
0	18185	12.05	1
0	18210	12.1	1
0	18211	12.1	2
0	18212	12.1	1
0	18213	12.1	1
0	18214	12.1	2
0	18215	12.1	1
0	18329	12.15	1
0	18330	12.15	2
0	18331	12.15	1
0	18416	12.2	1
0	18417	12.2	2
0	18418	12.2	1
0	18419	12.2	1
0	18420	12.2	2
0	18421	12.2	1
0	18496	12.25	1
0	18497	12.25	2
0	18498	12.25	1
0	18594	12.3	1
0	18595	12.3	2
0	18596	12.3	1
0	18597	12.3	1
0	18598	12.3	2
0	18599	12.3	1
0	18656	12.35	1
0	18657	12.35	2
0	18658	12.35	1
0	18683	12.4	1
0	18684	12.4	2
0	18685	12.4	1
0	18686	12.4	1
0	18687	12.4	2
0	18688	12.4	1
0	18719	12.45	1
0	18720	12.45	2
0	18721	12.45	1
0	18746	12.5	1
0	18747	12.5	2
0	18748	12.5	1
0	18749	12.5	1
0	18750	12.5	2
0	18751	12.5	1
0	18805	12.55	1
0	18806	12.55	2
0	18807	12.55	1
0	18832	12.6	1
0	18833	12.6	2
0	18834	12.6	1
0	18835	12.6	1
0	18836	12.6	2
0	18837	12.6	1
0	18868	12.65	1
0	18869	12.65	2
0	18870	12.65	1
0	18962	12.7	1
0	18963	12.7	2
0	18964	12.7	1
0	18965	12.7	1
0	18966	12.7	2
0	18967	12.7	1
0	19047	12.75	1
0	19048	12.75	2
0	19049	12.75	1
0	19093	12.8	1
0	19094	12.8	2
0	19095	12.8	1
0	19096	12.8	1
0	19097	12.8	2
0	19098	12.8	1
0	19134	12.85	1
0	19135	12.85	2
0	19136	12.85	1
0	19161	12.9	1
0	19162	12.9	2
0	19163	12.9	1
0	19164	12.9	1
0	19165	12.9	2
0	19166	12.9	1
0	19197	12.95	1
0	19198	12.95	2
0	19199	12.95	1
0	19224	13	1
0	19225	13	2
0	19226	13	1
0	19227	13	1
0	19228	13	2
0	19229	13	1
0	19260	13.05	1
0	19261	13.05	2
0	19262	13.05	1
0	19310	13.1	1
0	19311	13.1	2
0	19312	13.1	1
0	19313	13.1	1
0	19314	13.1	2
0	19315	13.1	1
0	19346	13.15	1
0	19347	13.15	2
0	19348	13.15	1
0	19373	13.2	1
0	19374	13.2	2
0	19375	13.2	1
0	19376	13.2	1
0	19377	13.2	2
0	19378	13.2	1
0	19453	13.25	1
0	19454	13.25	2
0	19455	13.25	1
0	19480	13.3	1
0	19481	13.3	2
0	19482	13.3	1
0	19483	13.3	1
0	19484	13.3	2
0	19485	13.3	1
0	19516	13.35	1
0	19517	13.35	2
0	19518	13.35	1
0	19543	13.4	1
0	19544	13.4	2
0	19545	13.4	1
0	19546	13.4	1
0	19547	13.4	2
0	19548	13.4	1
0	19579	13.45	1
0	19580	13.45	2
0	19581	13.45	1
0	19606	13.5	1
0	19607	13.5	2
0	19608	13.5	1
0	19609	13.5	1
0	19610	13.5	2
0	19611	13.5	1
0	19642	13.55	1
0	19643	13.55	2
0	19644	13.55	1
0	19669	13.6	1
0	19670	13.6	2
0	19671	13.6	1
0	19672	13.6	1
0	19673	13.6	2
0	19674	13.6	1
0	19728	13.65	1
0	19729	13.65	2
0	19730	13.65	1
0	19755	13.7	1
0	19756	13.7	2
0	19757	13.7	1
0	19758	13.7	1
0	19759	13.7	2
0	19760	13.7	1
0	19791	13.75	1
0	19792	13.75	2
0	19793	13.75	1
0	19841	13.8	1
0	19842	13.8	2
0	19843	13.8	1
0	19844	13.8	1
0	19845	13.8	2
0	19846	13.8	1
0	19877	13.85	1
0	19878	13.85	2
0	19879	13.85	1
0	19904	13.9	1
0	19905	13.9	2
0	19906	13.9	1
0	19907	13.9	1
0	19908	13.9	2
0	19909	13.9	1
0	19940	13.95	1
0	19941	13.95	2
0	19942	13.95	1
0	19967	14	1
0	19968	14	2
0	19969	14	1
0	19970	14	1
0	19971	14	2
0	19972	14	1
0	20003	14.05	1
0	20004	14.05	2
0	20005	14.05	1
0	20030	14.1	1
0	20031	14.1	2
0	20032	14.1	1
0	20033	14.1	1
0	20034	14.1	2
0	20035	14.1	1
0	20066	14.15	1
0	20067	14.15	2
0	20068	14.15	1
0	20116	14.2	1
0	20117	14.2	2
0	20118	14.2	1
0	20119	14.2	1
0	20120	14.2	2
0	20121	14.2	1
0	20152	14.25	1
0	20153	14.25	2
0	20154	14.25	1
0	20202	14.3	1
0	20203	14.3	2
0	20204	14.3	1
0	20205	14.3	1
0	20206	14.3	2
0	20207	14.3	1
0	20261	14.35	1
0	20262	14.35	2
0	20263	14.35	1
0	20288	14.4	1
0	20289	14.4	2
0	20290	14.4	1
0	20291	14.4	1
0	20292	14.4	2
0	20293	14.4	1
0	20347	14.45	1
0	20348	14.45	2
0	20349	14.45	1
0	20374	14.5	1
0	20375	14.5	2
0	20376	14.5	1
0	20377	14.5	1
0	20378	14.5	2
0	20379	14.5	1
0	20410	14.55	1
0	20411	14.55	2
0	20412	14.55	1
0	20437	14.6	1
0	20438	14.6	2
0	20439	14.6	1
0	20440	14.6	1
0	20441	14.6	2
0	20442	14.6	1
0	20473	14.65	1
0	20474	14.65	2
0	20475	14.65	1
0	20500	14.7	1
0	20501	14.7	2
0	20502	14.7	1
0	20503	14.7	1
0	20504	14.7	2
0	20505	14.7	1
0	20559	14.75	1
0	20560	14.75	2
0	20561	14.75	1
0	20586	14.8	1
0	20587	14.8	2
0	20588	14.8	1
0	20589	14.8	1
0	20590	14.8	2
0	20591	14.8	1
0	20645	14.85	1
0	20646	14.85	2
0	20647	14.85	1
0	20689	14.9	1
0	20690	14.9	2
0	20691	14.9	1
0	20692	14.9	1
0	20693	14.9	2
0	20694	14.9	1
0	20725	14.95	1
0	20726	14.95	2
0	20727	14.95	1
0	20775	15	1
0	20776	15	2
0	20777	15	1
0	20778	15	1
0	20779	15	2
0	20780	15	1
0	20811	15.05	1
0	20812	15.05	2
0	20813	15.05	1
0	20838	15.1	1
0	20839	15.1	2
0	20840	15.1	1
0	20841	15.1	1
0	20842	15.1	2
0	20843	15.1	1
0	20874	15.15	1
0	20875	15.15	2
0	20876	15.15	1
0	20901	15.2	1
0	20902	15.2	2
0	20903	15.2	1
0	20904	15.2	1
0	20905	15.2	2
0	20906	15.2	1
0	20937	15.25	1
0	20938	15.25	2
0	20939	15.25	1
0	20987	15.3	1
0	20988	15.3	2
0	20989	15.3	1
0	20990	15.3	1
0	20991	15.3	2
0	20992	15.3	1
0	21023	15.35	1
0	21024	15.35	2
0	21025	15.35	1
0	21073	15.4	1
0	21074	15.4	2
0	21075	15.4	1
0	21076	15.4	1
0	21077	15.4	2
0	21078	15.4	1
0	21132	15.45	1
0	21133	15.45	2
0	21134	15.45	1
0	21159	15.5	1
0	21160	15.5	2
0	21161	15.5	1
0	21162	15.5	1
0	21163	15.5	2
0	21164	15.5	1
0	21218	15.55	1
0	21219	15.55	2
0	21220	15.55	1
0	21245	15.6	1
0	21246	15.6	2
0	21247	15.6	1
0	21248	15.6	1
0	21249	15.6	2
0	21250	15.6	1
0	21281	15.65	1
0	21282	15.65	2
0	21283	15.65	1
0	21308	15.7	1
0	21309	15.7	2
0	21310	15.7	1
0	21311	15.7	1
0	21312	15.7	2
0	21313	15.7	1
0	21344	15.75	1
0	21345	15.75	2
0	21346	15.75	1
0	21371	15.8	1
0	21372	15.8	2
0	21373	15.8	1
0	21374	15.8	1
0	21375	15.8	2
0	21376	15.8	1
0	21430	15.85	1
0	21431	15.85	2
0	21432	15.85	1
0	21457	15.9	1
0	21458	15.9	2
0	21459	15.9	1
0	21460	15.9	1
0	21461	15.9	2
0	21462	15.9	1
0	21516	15.95	1
0	21517	15.95	2
0	21518	15.95	1
0	21566	16	1
0	21567	16	2
0	21568	16	1
0	21569	16	1
0	21570	16	2
0	21571	16	1
0	21602	16.05	1
0	21603	16.05	2
0	21604	16.05	1
0	21652	16.1	1
0	21653	16.1	2
0	21654	16.1	1
0	21655	16.1	1
0	21656	16.1	2
0	21657	16.1	1
0	21688	16.15	1
0	21689	16.15	2
0	21690	16.15	1
0	21715	16.2	1
0	21716	16.2	2
0	21717	16.2	1
0	21718	16.2	1
0	21719	16.2	2
0	21720	16.2	1
0	21751	16.25	1
0	21752	16.25	2
0	21753	16.25	1
0	21778	16.3	1
0	21779	16.3	2
0	21780	16.3	1
0	21781	16.3	1
0	21782	16.3	2
0	21783	16.3	1
0	21837	16.35	1
0	21838	16.35	2
0	21839	16.35	1
0	21864	16.4	1
0	21865	16.4	2
0	21866	16.4	1
0	21867	16.4	1
0	21868	16.4	2
0	21869	16.4	1
0	21900	16.45	1
0	21901	16.45	2
0	21902	16.45	1
0	21950	16.5	1
0	21951	16.5	2
0	21952	16.5	1
0	21953	16.5	1
0	21954	16.5	2
0	21955	16.5	1
0	22009	16.55	1
0	22010	16.55	2
0	22011	16.55	1
0	22036	16.6	1
0	22037	16.6	2
0	22038	16.6	1
0	22039	16.6	1
0	22040	16.6	2
0	22041	16.6	1
0	22095	16.65	1
0	22096	16.65	2
0	22097	16.65	1
0	22122	16.7	1
0	22123	16.7	2
0	22124	16.7	1
0	22125	16.7	1
0	22126	16.7	2
0	22127	16.7	1
0	22158	16.75	1
0	22159	16.75	2
0	22160	16.75	1
0	22185	16.8	1
0	22186	16.8	2
0	22187	16.8	1
0	22188	16.8	1
0	22189	16.8	2
0	22190	16.8	1
0	22221	16.85	1
0	22222	16.85	2
0	22223	16.85	1
0	22271	16.9	1
0	22272	16.9	2
0	22273	16.9	1
0	22274	16.9	1
0	22275	16.9	2
0	22276	16.9	1
0	22307	16.95	1
0	22308	16.95	2
0	22309	16.95	1
0	22334	17	1
0	22335	17	2
0	22336	17	1
0	22337	17	1
0	22338	17	2
0	22339	17	1
0	22393	17.05	1
0	22394	17.05	2
0	22395	17.05	1
0	22443	17.1	1
0	22444	17.1	2
0	22445	17.1	1
0	22446	17.1	1
0	22447	17.1	2
0	22448	17.1	1
0	22479	17.15	1
0	22480	17.15	2
0	22481	17.15	1
0	22529	17.2	1
0	22530	17.2	2
0	22531	17.2	1
0	22532	17.2	1
0	22533	17.2	2
0	22534	17.2	1
0	22565	17.25	1
0	22566	17.25	2
0	22567	17.25	1
0	22592	17.3	1
0	22593	17.3	2
0	22594	17.3	1
0	22595	17.3	1
0	22596	17.3	2
0	22597	17.3	1
0	22628	17.35	1
0	22629	17.35	2
0	22630	17.35	1
0	22655	17.4	1
0	22656	17.4	2
0	22657	17.4	1
0	22658	17.4	1
0	22659	17.4	2
0	22660	17.4	1
0	22714	17.45	1
0	22715	17.45	2
0	22716	17.45	1
0	22741	17.5	1
0	22742	17.5	2
0	22743	17.5	1
0	22744	17.5	1
0	22745	17.5	2
0	22746	17.5	1
0	22777	17.55	1
0	22778	17.55	2
0	22779	17.55	1
0	22827	17.6	1
0	22828	17.6	2
0	22829	17.6	1
0	22830	17.6	1
0	22831	17.6	2
0	22832	17.6	1
0	22886	17.65	1
0	22887	17.65	2
0	22888	17.65	1
0	22913	17.7	1
0	22914	17.7	2
0	22915	17.7	1
0	22916	17.7	1
0	22917	17.7	2
0	22918	17.7	1
0	22972	17.75	1
0	22973	17.75	2
0	22974	17.75	1
0	22999	17.8	1
0	23000	17.8	2
0	23001	17.8	1
0	23002	17.8	1
0	23003	17.8	2
0	23004	17.8	1
0	23035	17.85	1
0	23036	17.85	2
0	23037	17.85	1
0	23062	17.9	1
0	23063	17.9	2
0	23064	17.9	1
0	23065	17.9	1
0	23066	17.9	2
0	23067	17.9	1
0	23098	17.95	1
0	23099	17.95	2
0	23100	17.95	1
0	23148	18	1
0	23149	18	2
0	23150	18	1
0	23151	18	1
0	23152	18	2
0	23153	18	1
0	23184	18.05	1
0	23185	18.05	2
0	23186	18.05	1
0	23211	18.1	1
0	23212	18.1	2
0	23213	18.1	1
0	23214	18.1	1
0	23215	18.1	2
0	23216	18.1	1
0	23270	18.15	1
0	23271	18.15	2
0	23272	18.15	1
0	23320	18.2	1
0	23321	18.2	2
0	23322	18.2	1
0	23323	18.2	1
0	23324	18.2	2
0	23325	18.2	1
0	23356	18.25	1
0	23357	18.25	2
0	23358	18.25	1
0	23406	18.3	1
0	23407	18.3	2
0	23408	18.3	1
0	23409	18.3	1
0	23410	18.3	2
0	23411	18.3	1
0	23442	18.35	1
0	23443	18.35	2
0	23444	18.35	1
0	23469	18.4	1
0	23470	18.4	2
0	23471	18.4	1
0	23472	18.4	1
0	23473	18.4	2
0	23474	18.4	1
0	23505	18.45	1
0	23506	18.45	2
0	23507	18.45	1
0	23532	18.5	1
0	23533	18.5	2
0	23534	18.5	1
0	23535	18.5	1
0	23536	18.5	2
0	23537	18.5	1
0	23591	18.55	1
0	23592	18.55	2
0	23593	18.55	1
0	23618	18.6	1
0	23619	18.6	2
0	23620	18.6	1
0	23621	18.6	1
0	23622	18.6	2
0	23623	18.6	1
0	23654	18.65	1
0	23655	18.65	2
0	23656	18.65	1
0	23704	18.7	1
0	23705	18.7	2
0	23706	18.7	1
0	23707	18.7	1
0	23708	18.7	2
0	23709	18.7	1
0	23763	18.75	1
0	23764	18.75	2
0	23765	18.75	1
0	23790	18.8	1
0	23791	18.8	2
0	23792	18.8	1
0	23793	18.8	1
0	23794	18.8	2
0	23795	18.8	1
0	23849	18.85	1
0	23850	18.85	2
0	23851	18.85	1
0	23876	18.9	1
0	23877	18.9	2
0	23878	18.9	1
0	23879	18.9	1
0	23880	18.9	2
0	23881	18.9	1
0	23912	18.95	1
0	23913	18.95	2
0	23914	18.95	1
0	23939	19	1
0	23940	19	2
0	23941	19	1
0	23942	19	1
0	23943	19	2
0	23944	19	1
0	23975	19.05	1
0	23976	19.05	2
0	23977	19.05	1
0	24025	19.1	1
0	24026	19.1	2
0	24027	19.1	1
0	24028	19.1	1
0	24029	19.1	2
0	24030	19.1	1
0	24061	19.15	1
0	24062	19.15	2
0	24063	19.15	1
0	24088	19.2	1
0	24089	19.2	2
0	24090	19.2	1
0	24091	19.2	1
0	24092	19.2	2
0	24093	19.2	1
0	24147	19.25	1
0	24148	19.25	2
0	24149	19.25	1
0	24197	19.3	1
0	24198	19.3	2
0	24199	19.3	1
0	24200	19.3	1
0	24201	19.3	2
0	24202	19.3	1
0	24233	19.35	1
0	24234	19.35	2
0	24235	19.35	1
0	24283	19.4	1
0	24284	19.4	2
0	24285	19.4	1
0	24286	19.4	1
0	24287	19.4	2
0	24288	19.4	1
0	24319	19.45	1
0	24320	19.45	2
0	24321	19.45	1
0	24346	19.5	1
0	24347	19.5	2
0	24348	19.5	1
0	24349	19.5	1
0	24350	19.5	2
0	24351	19.5	1
0	24382	19.55	1
0	24383	19.55	2
0	24384	19.55	1
0	24409	19.6	1
0	24410	19.6	2
0	24411	19.6	1
0	24412	19.6	1
0	24413	19.6	2
0	24414	19.6	1
0	24468	19.65	1
0	24469	19.65	2
0	24470	19.65	1
0	24495	19.7	1
0	24496	19.7	2
0	24497	19.7	1
0	24498	19.7	1
0	24499	19.7	2
0	24500	19.7	1
0	24531	19.75	1
0	24532	19.75	2
0	24533	19.75	1
0	24581	19.8	1
0	24582	19.8	2
0	24583	19.8	1
0	24584	19.8	1
0	24585	19.8	2
0	24586	19.8	1
0	24640	19.85	1
0	24641	19.85	2
0	24642	19.85	1
0	24667	19.9	1
0	24668	19.9	2
0	24669	19.9	1
0	24670	19.9	1
0	24671	19.9	2
0	24672	19.9	1
0	24708	19.95	1
0	24709	19.95	2
0	24710	19.95	1
0	24735	20	1
0	24736	20	2
0	24737	20	1
0	24738	20	1
0	24739	20	2
0	24740	20	1
0	24771	20.05	1
0	24772	20.05	2
0	24773	20.05	1
0	24798	20.1	1
0	24799	20.1	2
0	24800	20.1	1
0	24801	20.1	1
0	24802	20.1	2
0	24803	20.1	1
0	24834	20.15	1
0	24835	20.15	2
0	24836	20.15	1
0	24884	20.2	1
0	24885	20.2	2
0	24886	20.2	1
0	24887	20.2	1
0	24888	20.2	2
0	24889	20.2	1
0	24920	20.25	1
0	24921	20.25	2
0	24922	20.25	1
0	24947	20.3	1
0	24948	20.3	2
0	24949	20.3	1
0	24950	20.3	1
0	24951	20.3	2
0	24952	20.3	1
0	24983	20.35	1
0	24984	20.35	2
0	24985	20.35	1
0	25027	20.4	1
0	25028	20.4	2
0	25029	20.4	1
0	25030	20.4	1
0	25031	20.4	2
0	25032	20.4	1
0	25063	20.45	1
0	25064	20.45	2
0	25065	20.45	1
0	25090	20.5	1
0	25091	20.5	2
0	25092	20.5	1
0	25093	20.5	1
0	25094	20.5	2
0	25095	20.5	1
0	25126	20.55	1
0	25127	20.55	2
0	25128	20.55	1
0	25153	20.6	1
0	25154	20.6	2
0	25155	20.6	1
0	25156	20.6	1
0	25157	20.6	2
0	25158	20.6	1
0	25189	20.65	1
0	25190	20.65	2
0	25191	20.65	1
0	25216	20.7	1
0	25217	20.7	2
0	25218	20.7	1
0	25219	20.7	1
0	25220	20.7	2
0	25221	20.7	1
0	25275	20.75	1
0	25276	20.75	2
0	25277	20.75	1
0	25302	20.8	1
0	25303	20.8	2
0	25304	20.8	1
0	25305	20.8	1
0	25306	20.8	2
0	25307	20.8	1
0	25338	20.85	1
0	25339	20.85	2
0	25340	20.85	1
0	25365	20.9	1
0	25366	20.9	2
0	25367	20.9	1
0	25368	20.9	1
0	25369	20.9	2
0	25370	20.9	1
0	25424	20.95	1
0	25425	20.95	2
0	25426	20.95	1
0	25451	21	1
0	25452	21	2
0	25453	21	1
0	25454	21	1
0	25455	21	2
0	25456	21	1
0	25487	21.05	1
0	25488	21.05	2
0	25489	21.05	1
0	25514	21.1	1
0	25515	21.1	2
0	25516	21.1	1
0	25517	21.1	1
0	25518	21.1	2
0	25519	21.1	1
0	25550	21.15	1
0	25551	21.15	2
0	25552	21.15	1
0	25577	21.2	1
0	25578	21.2	2
0	25579	21.2	1
0	25580	21.2	1
0	25581	21.2	2
0	25582	21.2	1
0	25613	21.25	1
0	25614	21.25	2
0	25615	21.25	1
0	25663	21.3	1
0	25664	21.3	2
0	25665	21.3	1
0	25666	21.3	1
0	25667	21.3	2
0	25668	21.3	1
0	25699	21.35	1
0	25700	21.35	2
0	25701	21.35	1
0	25749	21.4	1
0	25750	21.4	2
0	25751	21.4	1
0	25752	21.4	1
0	25753	21.4	2
0	25754	21.4	1
0	25785	21.45	1
0	25786	21.45	2
0	25787	21.45	1
0	25835	21.5	1
0	25836	21.5	2
0	25837	21.5	1
0	25838	21.5	1
0	25839	21.5	2
0	25840	21.5	1
0	25894	21.55	1
0	25895	21.55	2
0	25896	21.55	1
0	25921	21.6	1
0	25922	21.6	2
0	25923	21.6	1
0	25924	21.6	1
0	25925	21.6	2
0	25926	21.6	1
0	25957	21.65	1
0	25958	21.65	2
0	25959	21.65	1
0	25984	21.7	1
0	25985	21.7	2
0	25986	21.7	1
0	25987	21.7	1
0	25988	21.7	2
0	25989	21.7	1
0	26020	21.75	1
0	26021	21.75	2
0	26022	21.75	1
0	26047	21.8	1
0	26048	21.8	2
0	26049	21.8	1
0	26050	21.8	1
0	26051	21.8	2
0	26052	21.8	1
0	26106	21.85	1
0	26107	21.85	2
0	26108	21.85	1
0	26133	21.9	1
0	26134	21.9	2
0	26135	21.9	1
0	26136	21.9	1
0	26137	21.9	2
0	26138	21.9	1
0	26192	21.95	1
0	26193	21.95	2
0	26194	21.95	1
0	26219	22	1
0	26220	22	2
0	26221	22	1
0	26222	22	1
0	26223	22	2
0	26224	22	1
0	26278	22.05	1
0	26279	22.05	2
0	26280	22.05	1
0	26328	22.1	1
0	26329	22.1	2
0	26330	22.1	1
0	26331	22.1	1
0	26332	22.1	2
0	26333	22.1	1
0	26364	22.15	1
0	26365	22.15	2
0	26366	22.15	1
0	26391	22.2	1
0	26392	22.2	2
0	26393	22.2	1
0	26394	22.2	1
0	26395	22.2	2
0	26396	22.2	1
0	26427	22.25	1
0	26428	22.25	2
0	26429	22.25	1
0	26454	22.3	1
0	26455	22.3	2
0	26456	22.3	1
0	26457	22.3	1
0	26458	22.3	2
0	26459	22.3	1
0	26490	22.35	1
0	26491	22.35	2
0	26492	22.35	1
0	26540	22.4	1
0	26541	22.4	2
0	26542	22.4	1
0	26543	22.4	1
0	26544	22.4	2
0	26545	22.4	1
0	26576	22.45	1
0	26577	22.45	2
0	26578	22.45	1
0	26626	22.5	1
0	26627	22.5	2
0	26628	22.5	1
0	26629	22.5	1
0	26630	22.5	2
0	26631	22.5	1
0	26662	22.55	1
0	26663	22.55	2
0	26664	22.55	1
0	26712	22.6	1
0	26713	22.6	2
0	26714	22.6	1
0	26715	22.6	1
0	26716	22.6	2
0	26717	22.6	1
0	26771	22.65	1
0	26772	22.65	2
0	26773	22.65	1
0	26798	22.7	1
0	26799	22.7	2
0	26800	22.7	1
0	26801	22.7	1
0	26802	22.7	2
0	26803	22.7	1
0	26834	22.75	1
0	26835	22.75	2
0	26836	22.75	1
0	26861	22.8	1
0	26862	22.8	2
0	26863	22.8	1
0	26864	22.8	1
0	26865	22.8	2
0	26866	22.8	1
0	26897	22.85	1
0	26898	22.85	2
0	26899	22.85	1
0	26924	22.9	1
0	26925	22.9	2
0	26926	22.9	1
0	26927	22.9	1
0	26928	22.9	2
0	26929	22.9	1
0	26983	22.95	1
0	26984	22.95	2
0	26985	22.95	1
0	27010	23	1
0	27011	23	2
0	27012	23	1
0	27013	23	1
0	27014	23	2
0	27015	23	1
0	27069	23.05	1
0	27070	23.05	2
0	27071	23.05	1
0	27096	23.1	1
0	27097	23.1	2
0	27098	23.1	1
0	27099	23.1	1
0	27100	23.1	2
0	27101	23.1	1
0	27155	23.15	1
0	27156	23.15	2
0	27157	23.15	1
0	27205	23.2	1
0	27206	23.2	2
0	27207	23.2	1
0	27208	23.2	1
0	27209	23.2	2
0	27210	23.2	1
0	27241	23.25	1
0	27242	23.25	2
0	27243	23.25	1
0	27268	23.3	1
0	27269	23.3	2
0	27270	23.3	1
0	27271	23.3	1
0	27272	23.3	2
0	27273	23.3	1
0	27304	23.35	1
0	27305	23.35	2
0	27306	23.35	1
0	27331	23.4	1
0	27332	23.4	2
0	27333	23.4	1
0	27334	23.4	1
0	27335	23.4	2
0	27336	23.4	1
0	27367	23.45	1
0	27368	23.45	2
0	27369	23.45	1
0	27417	23.5	1
0	27418	23.5	2
0	27419	23.5	1
0	27420	23.5	1
0	27421	23.5	2
0	27422	23.5	1
0	27453	23.55	1
0	27454	23.55	2
0	27455	23.55	1
0	27503	23.6	1
0	27504	23.6	2
0	27505	23.6	1
0	27506	23.6	1
0	27507	23.6	2
0	27508	23.6	1
0	27539	23.65	1
0	27540	23.65	2
0	27541	23.65	1
0	27589	23.7	1
0	27590	23.7	2
0	27591	23.7	1
0	27592	23.7	1
0	27593	23.7	2
0	27594	23.7	1
0	27648	23.75	1
0	27649	23.75	2
0	27650	23.75	1
0	27675	23.8	1
0	27676	23.8	2
0	27677	23.8	1
0	27678	23.8	1
0	27679	23.8	2
0	27680	23.8	1
0	27711	23.85	1
0	27712	23.85	2
0	27713	23.85	1
0	27738	23.9	1
0	27739	23.9	2
0	27740	23.9	1
0	27741	23.9	1
0	27742	23.9	2
0	27743	23.9	1
0	27774	23.95	1
0	27775	23.95	2
0	27776	23.95	1
0	27801	24	1
0	27802	24	2
0	27803	24	1
0	27804	24	1
0	27805	24	2
0	27806	24	1
0	27860	24.05	1
0	27861	24.05	2
0	27862	24.05	1
0	27887	24.1	1
0	27888	24.1	2
0	27889	24.1	1
0	27890	24.1	1
0	27891	24.1	2
0	27892	24.1	1
0	27946	24.15	1
0	27947	24.15	2
0	27948	24.15	1
0	27973	24.2	1
0	27974	24.2	2
0	27975	24.2	1
0	27976	24.2	1
0	27977	24.2	2
0	27978	24.2	1
0	28032	24.25	1
0	28033	24.25	2
0	28034	24.25	1
0	28082	24.3	1
0	28083	24.3	2
0	28084	24.3	1
0	28085	24.3	1
0	28086	24.3	2
0	28087	24.3	1
0	28118	24.35	1
0	28119	24.35	2
0	28120	24.35	1
0	28145	24.4	1
0	28146	24.4	2
0	28147	24.4	1
0	28148	24.4	1
0	28149	24.4	2
0	28150	24.4	1
0	28181	24.45	1
0	28182	24.45	2
0	28183	24.45	1
0	28208	24.5	1
0	28209	24.5	2
0	28210	24.5	1
0	28211	24.5	1
0	28212	24.5	2
0	28213	24.5	1
0	28244	24.55	1
0	28245	24.55	2
0	28246	24.55	1
0	28294	24.6	1
0	28295	24.6	2
0	28296	24.6	1
0	28297	24.6	1
0	28298	24.6	2
0	28299	24.6	1
0	28330	24.65	1
0	28331	24.65	2
0	28332	24.65	1
0	28380	24.7	1
0	28381	24.7	2
0	28382	24.7	1
0	28383	24.7	1
0	28384	24.7	2
0	28385	24.7	1
0	28416	24.75	1
0	28417	24.75	2
0	28418	24.75	1
0	28466	24.8	1
0	28467	24.8	2
0	28468	24.8	1
0	28469	24.8	1
0	28470	24.8	2
0	28471	24.8	1
0	28525	24.85	1
0	28526	24.85	2
0	28527	24.85	1
0	28552	24.9	1
0	28553	24.9	2
0	28554	24.9	1
0	28555	24.9	1
0	28556	24.9	2
0	28557	24.9	1
0	28588	24.95	1
0	28589	24.95	2
0	28590	24.95	1
0	28615	25	1
0	28616	25	2
0	28617	25	1
0	28618	25	1
0	28619	25	2
0	28620	25	1
0	28651	25.05	1
0	28652	25.05	2
0	28653	25.05	1
0	28678	25.1	1
0	28679	25.1	2
0	28680	25.1	1
0	28681	25.1	1
0	28682	25.1	2
0	28683	25.1	1
0	28737	25.15	1
0	28738	25.15	2
0	28739	25.15	1
0	28764	25.2	1
0	28765	25.2	2
0	28766	25.2	1
0	28767	25.2	1
0	28768	25.2	2
0	28769	25.2	1
0	28823	25.25	1
0	28824	25.25	2
0	28825	25.25	1
0	28850	25.3	1
0	28851	25.3	2
0	28852	25.3	1
0	28853	25.3	1
0	28854	25.3	2
0	28855	25.3	1
0	28903	25.35	1
0	28904	25.35	2
0	28905	25.35	1
0	28935	25.4	1
0	28936	25.4	2
0	28937	25.4	1
0	28938	25.4	1
0	28939	25.4	2
0	28940	25.4	1
0	28971	25.45	1
0	28972	25.45	2
0	28973	25.45	1
0	28998	25.5	1
0	28999	25.5	2
0	29000	25.5	1
0	29001	25.5	1
0	29002	25.5	2
0	29003	25.5	1
0	29034	25.55	1
0	29035	25.55	2
0	29036	25.55	1
0	29061	25.6	1
0	29062	25.6	2
0	29063	25.6	1
0	29064	25.6	1
0	29065	25.6	2
0	29066	25.6	1
0	29097	25.65	1
0	29098	25.65	2
0	29099	25.65	1
0	29147	25.7	1
0	29148	25.7	2
0	29149	25.7	1
0	29150	25.7	1
0	29151	25.7	2
0	29152	25.7	1
0	29183	25.75	1
0	29184	25.75	2
0	29185	25.75	1
0	29210	25.8	1
0	29211	25.8	2
0	29212	25.8	1
0	29213	25.8	1
0	29214	25.8	2
0	29215	25.8	1
0	29246	25.85	1
0	29247	25.85	2
0	29248	25.85	1
0	29296	25.9	1
0	29297	25.9	2
0	29298	25.9	1
0	29299	25.9	1
0	29300	25.9	2
0	29301	25.9	1
0	29332	25.95	1
0	29333	25.95	2
0	29334	25.95	1
0	29359	26	1
0	29360	26	2
0	29361	26	1
0	29362	26	1
0	29363	26	2
0	29364	26	1
0	29395	26.05	1
0	29396	26.05	2
0	29397	26.05	1
0	29422	26.1	1
0	29423	26.1	2
0	29424	26.1	1
0	29425	26.1	1
0	29426	26.1	2
0	29427	26.1	1
0	29458	26.15	1
0	29459	26.15	2
0	29460	26.15	1
0	29485	26.2	1
0	29486	26.2	2
0	29487	26.2	1
0	29488	26.2	1
0	29489	26.2	2
0	29490	26.2	1
0	29544	26.25	1
0	29545	26.25	2
0	29546	26.25	1
0	29571	26.3	1
0	29572	26.3	2
0	29573	26.3	1
0	29574	26.3	1
0	29575	26.3	2
0	29576	26.3	1
0	29607	26.35	1
0	29608	26.35	2
0	29609	26.35	1
0	29634	26.4	1
0	29635	26.4	2
0	29636	26.4	1
0	29637	26.4	1
0	29638	26.4	2
0	29639	26.4	1
0	29693	26.45	1
0	29694	26.45	2
0	29695	26.45	1
0	29720	26.5	1
0	29721	26.5	2
0	29722	26.5	1
0	29723	26.5	1
0	29724	26.5	2
0	29725	26.5	1
0	29756	26.55	1
0	29757	26.55	2
0	29758	26.55	1
0	29783	26.6	1
0	29784	26.6	2
0	29785	26.6	1
0	29786	26.6	1
0	29787	26.6	2
0	29788	26.6	1
0	29819	26.65	1
0	29820	26.65	2
0	29821	26.65	1
0	29846	26.7	1
0	29847	26.7	2
0	29848	26.7	1
0	29849	26.7	1
0	29850	26.7	2
0	29851	26.7	1
0	29882	26.75	1
0	29883	26.75	2
0	29884	26.75	1
0	29932	26.8	1
0	29933	26.8	2
0	29934	26.8	1
0	29935	26.8	1
0	29936	26.8	2
0	29937	26.8	1
0	29991	26.85	1
0	29992	26.85	2
0	29993	26.85	1
0	30018	26.9	1
0	30019	26.9	2
0	30020	26.9	1
0	30021	26.9	1
0	30022	26.9	2
0	30023	26.9	1
0	30054	26.95	1
0	30055	26.95	2
0	30056	26.95	1
0	30109	27	1
0	30110	27	2
0	30111	27	1
0	30112	27	1
0	30113	27	2
0	30114	27	1
0	30145	27.05	1
0	30146	27.05	2
0	30147	27.05	1
0	30172	27.1	1
0	30173	27.1	2
0	30174	27.1	1
0	30175	27.1	1
0	30176	27.1	2
0	30177	27.1	1
0	30208	27.15	1
0	30209	27.15	2
0	30210	27.15	1
0	30235	27.2	1
0	30236	27.2	2
0	30237	27.2	1
0	30238	27.2	1
0	30239	27.2	2
0	30240	27.2	1
0	30271	27.25	1
0	30272	27.25	2
0	30273	27.25	1
0	30298	27.3	1
0	30299	27.3	2
0	30300	27.3	1
0	30301	27.3	1
0	30302	27.3	2
0	30303	27.3	1
0	30334	27.35	1
0	30335	27.35	2
0	30336	27.35	1
0	30384	27.4	1
0	30385	27.4	2
0	30386	27.4	1
0	30387	27.4	1
0	30388	27.4	2
0	30389	27.4	1
0	30420	27.45	1
0	30421	27.45	2
0	30422	27.45	1
0	30447	27.5	1
0	30448	27.5	2
0	30449	27.5	1
0	30450	27.5	1
0	30451	27.5	2
0	30452	27.5	1
0	30506	27.55	1
0	30507	27.55	2
0	30508	27.55	1
0	30533	27.6	1
0	30534	27.6	2
0	30535	27.6	1
0	30536	27.6	1
0	30537	27.6	2
0	30538	27.6	1
0	30569	27.65	1
0	30570	27.65	2
0	30571	27.65	1
0	30596	27.7	1
0	30597	27.7	2
0	30598	27.7	1
0	30599	27.7	1
0	30600	27.7	2
0	30601	27.7	1
0	30632	27.75	1
0	30633	27.75	2
0	30634	27.75	1
0	30659	27.8	1
0	30660	27.8	2
0	30661	27.8	1
0	30662	27.8	1
0	30663	27.8	2
0	30664	27.8	1
0	30695	27.85	1
0	30696	27.85	2
0	30697	27.85	1
0	30722	27.9	1
0	30723	27.9	2
0	30724	27.9	1
0	30725	27.9	1
0	30726	27.9	2
0	30727	27.9	1
0	30781	27.95	1
0	30782	27.95	2
0	30783	27.95	1
0	30808	28	1
0	30809	28	2
0	30810	28	1
0	30811	28	1
0	30812	28	2
0	30813	28	1
0	30844	28.05	1
0	30845	28.05	2
0	30846	28.05	1
0	30894	28.1	1
0	30895	28.1	2
0	30896	28.1	1
0	30897	28.1	1
0	30898	28.1	2
0	30899	28.1	1
0	30930	28.15	1
0	30931	28.15	2
0	30932	28.15	1
0	30957	28.2	1
0	30958	28.2	2
0	30959	28.2	1
0	30960	28.2	1
0	30961	28.2	2
0	30962	28.2	1
0	30993	28.25	1
0	30994	28.25	2
0	30995	28.25	1
0	31020	28.3	1
0	31021	28.3	2
0	31022	28.3	1
0	31023	28.3	1
0	31024	28.3	2
0	31025	28.3	1
0	31056	28.35	1
0	31057	28.35	2
0	31058	28.35	1
0	31106	28.4	1
0	31107	28.4	2
0	31108	28.4	1
0	31109	28.4	1
0	31110	28.4	2
0	31111	28.4	1
0	31142	28.45	1
0	31143	28.45	2
0	31144	28.45	1
0	31192	28.5	1
0	31193	28.5	2
0	31194	28.5	1
0	31195	28.5	1
0	31196	28.5	2
0	31197	28.5	1
0	31251	28.55	1
0	31252	28.55	2
0	31253	28.55	1
0	31278	28.6	1
0	31279	28.6	2
0	31280	28.6	1
0	31281	28.6	1
0	31282	28.6	2
0	31283	28.6	1
0	31337	28.65	1
0	31338	28.65	2
0	31339	28.65	1
0	31364	28.7	1
0	31365	28.7	2
0	31366	28.7	1
0	31367	28.7	1
0	31368	28.7	2
0	31369	28.7	1
0	31400	28.75	1
0	31401	28.75	2
0	31402	28.75	1
0	31427	28.8	1
0	31428	28.8	2
0	31429	28.8	1
0	31430	28.8	1
0	31431	28.8	2
0	31432	28.8	1
0	31463	28.85	1
0	31464	28.85	2
0	31465	28.85	1
0	31490	28.9	1
0	31491	28.9	2
0	31492	28.9	1
0	31493	28.9	1
0	31494	28.9	2
0	31495	28.9	1
0	31549	28.95	1
0	31550	28.95	2
0	31551	28.95	1
0	31576	29	1
0	31577	29	2
0	31578	29	1
0	31579	29	1
0	31580	29	2
0	31581	29	1
0	31635	29.05	1
0	31636	29.05	2
0	31637	29.05	1
0	31685	29.1	1
0	31686	29.1	2
0	31687	29.1	1
0	31688	29.1	1
0	31689	29.1	2
0	31690	29.1	1
0	31721	29.15	1
0	31722	29.15	2
0	31723	29.15	1
0	31771	29.2	1
0	31772	29.2	2
0	31773	29.2	1
0	31774	29.2	1
0	31775	29.2	2
0	31776	29.2	1
0	31807	29.25	1
0	31808	29.25	2
0	31809	29.25	1
0	31834	29.3	1
0	31835	29.3	2
0	31836	29.3	1
0	31837	29.3	1
0	31838	29.3	2
0	31839	29.3	1
0	31870	29.35	1
0	31871	29.35	2
0	31872	29.35	1
0	31897	29.4	1
0	31898	29.4	2
0	31899	29.4	1
0	31900	29.4	1
0	31901	29.4	2
0	31902	29.4	1
0	31933	29.45	1
0	31934	29.45	2
0	31935	29.45	1
0	31983	29.5	1
0	31984	29.5	2
0	31985	29.5	1
0	31986	29.5	1
0	31987	29.5	2
0	31988	29.5	1
0	32019	29.55	1
0	32020	29.55	2
0	32021	29.55	1
0	32069	29.6	1
0	32070	29.6	2
0	32071	29.6	1
0	32072	29.6	1
0	32073	29.6	2
0	32074	29.6	1
0	32128	29.65	1
0	32129	29.65	2
0	32130	29.65	1
0	32155	29.7	1
0	32156	29.7	2
0	32157	29.7	1
0	32158	29.7	1
0	32159	29.7	2
0	32160	29.7	1
0	32214	29.75	1
0	32215	29.75	2
0	32216	29.75	1
0	32241	29.8	1
0	32242	29.8	2
0	32243	29.8	1
0	32244	29.8	1
0	32245	29.8	2
0	32246	29.8	1
0	32277	29.85	1
0	32278	29.85	2
0	32279	29.85	1
0	32304	29.9	1
0	32305	29.9	2
0	32306	29.9	1
0	32307	29.9	1
0	32308	29.9	2
0	32309	29.9	1
0	32340	29.95	1
0	32341	29.95	2
0	32342	29.95	1
0	32367	30	1
0	32368	30	2
0	32369	30	1
0	32370	30	1
0	32371	30	2
0	32372	30	1
0	32408	30.05	1
0	32409	30.05	2
0	32410	30.05	1
0	32435	30.1	1
0	32436	30.1	2
0	32437	30.1	1
0	32438	30.1	1
0	32439	30.1	2
0	32440	30.1	1
0	32476	30.15	1
0	32477	30.15	2
0	32478	30.15	1
0	32503	30.2	1
0	32504	30.2	2
0	32505	30.2	1
0	32506	30.2	1
0	32507	30.2	2
0	32508	30.2	1
0	32539	30.25	1
0	32540	30.25	2
0	32541	30.25	1
0	32566	30.3	1
0	32567	30.3	2
0	32568	30.3	1
0	32569	30.3	1
0	32570	30.3	2
0	32571	30.3	1
0	32602	30.35	1
0	32603	30.35	2
0	32604	30.35	1
0	32629	30.4	1
0	32630	30.4	2
0	32631	30.4	1
0	32632	30.4	1
0	32633	30.4	2
0	32634	30.4	1
0	32665	30.45	1
0	32666	30.45	2
0	32667	30.45	1
0	32692	30.5	1
0	32693	30.5	2
0	32694	30.5	1
0	32695	30.5	1
0	32696	30.5	2
0	32697	30.5	1
0	32728	30.55	1
0	32729	30.55	2
0	32730	30.55	1
0	32755	30.6	1
0	32756	30.6	2
0	32757	30.6	1
0	32758	30.6	1
0	32759	30.6	2
0	32760	30.6	1
0	32791	30.65	1
0	32792	30.65	2
0	32793	30.65	1
0	32818	30.7	1
0	32819	30.7	2
0	32820	30.7	1
0	32821	30.7	1
0	32822	30.7	2
0	32823	30.7	1
0	32854	30.75	1
0	32855	30.75	2
0	32856	30.75	1
0	32881	30.8	1
0	32882	30.8	2
0	32883	30.8	1
0	32884	30.8	1
0	32885	30.8	2
0	32886	30.8	1
0	32917	30.85	1
0	32918	30.85	2
0	32919	30.85	1
0	32944	30.9	1
0	32945	30.9	2
0	32946	30.9	1
0	32947	30.9	1
0	32948	30.9	2
0	32949	30.9	1
0	32980	30.95	1
0	32981	30.95	2
0	32982	30.95	1
0	33007	31	1
0	33008	31	2
0	33009	31	1
0	33010	31	1
0	33011	31	2
0	33012	31	1
0	33043	31.05	1
0	33044	31.05	2
0	33045	31.05	1
0	33070	31.1	1
0	33071	31.1	2
0	33072	31.1	1
0	33073	31.1	1
0	33074	31.1	2
0	33075	31.1	1
0	33106	31.15	1
0	33107	31.15	2
0	33108	31.15	1
0	33133	31.2	1
0	33134	31.2	2
0	33135	31.2	1
0	33136	31.2	1
0	33137	31.2	2
0	33138	31.2	1
0	33192	31.25	1
0	33193	31.25	2
0	33194	31.25	1
0	33219	31.3	1
0	33220	31.3	2
0	33221	31.3	1
0	33222	31.3	1
0	33223	31.3	2
0	33224	31.3	1
0	33278	31.35	1
0	33279	31.35	2
0	33280	31.35	1
0	33328	31.4	1
0	33329	31.4	2
0	33330	31.4	1
0	33331	31.4	1
0	33332	31.4	2
0	33333	31.4	1
0	33364	31.45	1
0	33365	31.45	2
0	33366	31.45	1
0	33414	31.5	1
0	33415	31.5	2
0	33416	31.5	1
0	33417	31.5	1
0	33418	31.5	2
0	33419	31.5	1
0	33450	31.55	1
0	33451	31.55	2
0	33452	31.55	1
0	33477	31.6	1
0	33478	31.6	2
0	33479	31.6	1
0	33480	31.6	1
0	33481	31.6	2
0	33482	31.6	1
0	33513	31.65	1
0	33514	31.65	2
0	33515	31.65	1
0	33540	31.7	1
0	33541	31.7	2
0	33542	31.7	1
0	33543	31.7	1
0	33544	31.7	2
0	33545	31.7	1
0	33576	31.75	1
0	33577	31.75	2
0	33578	31.75	1
0	33626	31.8	1
0	33627	31.8	2
0	33628	31.8	1
0	33629	31.8	1
0	33630	31.8	2
0	33631	31.8	1
0	33662	31.85	1
0	33663	31.85	2
0	33664	31.85	1
0	33712	31.9	1
0	33713	31.9	2
0	33714	31.9	1
0	33715	31.9	1
0	33716	31.9	2
0	33717	31.9	1
0	33771	31.95	1
0	33772	31.95	2
0	33773	31.95	1
0	33798	32	1
0	33799	32	2
0	33800	32	1
0	33801	32	1
0	33802	32	2
0	33803	32	1
0	33857	32.05	1
0	33858	32.05	2
0	33859	32.05	1
0	33884	32.1	1
0	33885	32.1	2
0	33886	32.1	1
0	33887	32.1	1
0	33888	32.1	2
0	33889	32.1	1
0	33920	32.15	1
0	33921	32.15	2
0	33922	32.15	1
0	33947	32.2	1
0	33948	32.2	2
0	33949	32.2	1
0	33950	32.2	1
0	33951	32.2	2
0	33952	32.2	1
0	33983	32.25	1
0	33984	32.25	2
0	33985	32.25	1
0	34010	32.3	1
0	34011	32.3	2
0	34012	32.3	1
0	34013	32.3	1
0	34014	32.3	2
0	34015	32.3	1
0	34051	32.35	1
0	34052	32.35	2
0	34053	32.35	1
0	34101	32.4	1
0	34102	32.4	2
0	34103	32.4	1
0	34104	32.4	1
0	34105	32.4	2
0	34106	32.4	1
0	34137	32.45	1
0	34138	32.45	2
0	34139	32.45	1
0	34164	32.5	1
0	34165	32.5	2
0	34166	32.5	1
0	34167	32.5	1
0	34168	32.5	2
0	34169	32.5	1
0	34200	32.55	1
0	34201	32.55	2
0	34202	32.55	1
0	34250	32.6	1
0	34251	32.6	2
0	34252	32.6	1
0	34253	32.6	1
0	34254	32.6	2
0	34255	32.6	1
0	34286	32.65	1
0	34287	32.65	2
0	34288	32.65	1
0	34313	32.7	1
0	34314	32.7	2
0	34315	32.7	1
0	34316	32.7	1
0	34317	32.7	2
0	34318	32.7	1
0	34349	32.75	1
0	34350	32.75	2
0	34351	32.75	1
0	34376	32.8	1
0	34377	32.8	2
0	34378	32.8	1
0	34379	32.8	1
0	34380	32.8	2
0	34381	32.8	1
0	34412	32.85	1
0	34413	32.85	2
0	34414	32.85	1
0	34439	32.9	1
0	34440	32.9	2
0	34441	32.9	1
0	34442	32.9	1
0	34443	32.9	2
0	34444	32.9	1
0	34498	32.95	1
0	34499	32.95	2
0	34500	32.95	1
0	34525	33	1
0	34526	33	2
0	34527	33	1
0	34528	33	1
0	34529	33	2
0	34530	33	1
0	34561	33.05	1
0	34562	33.05	2
0	34563	33.05	1
0	34588	33.1	1
0	34589	33.1	2
0	34590	33.1	1
0	34591	33.1	1
0	34592	33.1	2
0	34593	33.1	1
0	34647	33.15	1
0	34648	33.15	2
0	34649	33.15	1
0	34674	33.2	1
0	34675	33.2	2
0	34676	33.2	1
0	34677	33.2	1
0	34678	33.2	2
0	34679	33.2	1
0	34710	33.25	1
0	34711	33.25	2
0	34712	33.25	1
0	34737	33.3	1
0	34738	33.3	2
0	34739	33.3	1
0	34740	33.3	1
0	34741	33.3	2
0	34742	33.3	1
0	34773	33.35	1
0	34774	33.35	2
0	34775	33.35	1
0	34800	33.4	1
0	34801	33.4	2
0	34802	33.4	1
0	34803	33.4	1
0	34804	33.4	2
0	34805	33.4	1
0	34836	33.45	1
0	34837	33.45	2
0	34838	33.45	1
0	34886	33.5	1
0	34887	33.5	2
0	34888	33.5	1
0	34889	33.5	1
0	34890	33.5	2
0	34891	33.5	1
0	34945	33.55	1
0	34946	33.55	2
0	34947	33.55	1
0	34972	33.6	1
0	34973	33.6	2
0	34974	33.6	1
0	34975	33.6	1
0	34976	33.6	2
0	34977	33.6	1
0	35008	33.65	1
0	35009	33.65	2
0	35010	33.65	1
0	35081	33.7	1
0	35082	33.7	2
0	35083	33.7	1
0	35084	33.7	1
0	35085	33.7	2
0	35086	33.7	1
0	35117	33.75	1
0	35118	33.75	2
0	35119	33.75	1
0	35144	33.8	1
0	35145	33.8	2
0	35146	33.8	1
0	35147	33.8	1
0	35148	33.8	2
0	35149	33.8	1
0	35180	33.85	1
0	35181	33.85	2
0	35182	33.85	1
0	35207	33.9	1
0	35208	33.9	2
0	35209	33.9	1
0	35210	33.9	1
0	35211	33.9	2
0	35212	33.9	1
0	35243	33.95	1
0	35244	33.95	2
0	35245	33.95	1
0	35270	34	1
0	35271	34	2
0	35272	34	1
0	35273	34	1
0	35274	34	2
0	35275	34	1
0	35329	34.05	1
0	35330	34.05	2
0	35331	34.05	1
0	35379	34.1	1
0	35380	34.1	2
0	35381	34.1	1
0	35382	34.1	1
0	35383	34.1	2
0	35384	34.1	1
0	35415	34.15	1
0	35416	34.15	2
0	35417	34.15	1
0	35442	34.2	1
0	35443	34.2	2
0	35444	34.2	1
0	35445	34.2	1
0	35446	34.2	2
0	35447	34.2	1
0	35524	34.25	1
0	35525	34.25	2
0	35526	34.25	1
0	35551	34.3	1
0	35552	34.3	2
0	35553	34.3	1
0	35554	34.3	1
0	35555	34.3	2
0	35556	34.3	1
0	35587	34.35	1
0	35588	34.35	2
0	35589	34.35	1
0	35614	34.4	1
0	35615	34.4	2
0	35616	34.4	1
0	35617	34.4	1
0	35618	34.4	2
0	35619	34.4	1
0	35650	34.45	1
0	35651	34.45	2
0	35652	34.45	1
0	35677	34.5	1
0	35678	34.5	2
0	35679	34.5	1
0	35680	34.5	1
0	35681	34.5	2
0	35682	34.5	1
0	35713	34.55	1
0	35714	34.55	2
0	35715	34.55	1
0	35763	34.6	1
0	35764	34.6	2
0	35765	34.6	1
0	35766	34.6	1
0	35767	34.6	2
0	35768	34.6	1
0	35822	34.65	1
0	35823	34.65	2
0	35824	34.65	1
0	35849	34.7	1
0	35850	34.7	2
0	35851	34.7	1
0	35852	34.7	1
0	35853	34.7	2
0	35854	34.7	1
0	35885	34.75	1
0	35886	34.75	2
0	35887	34.75	1
0	35958	34.8	1
0	35959	34.8	2
0	35960	34.8	1
0	35961	34.8	1
0	35962	34.8	2
0	35963	34.8	1
0	35994	34.85	1
0	35995	34.85	2
0	35996	34.85	1
0	36021	34.9	1
0	36022	34.9	2
0	36023	34.9	1
0	36024	34.9	1
0	36025	34.9	2
0	36026	34.9	1
0	36057	34.95	1
0	36058	34.95	2
0	36059	34.95	1
0	36084	35	1
0	36085	35	2
0	36086	35	1
0	36087	35	1
0	36088	35	2
0	36089	35	1
0	36120	35.05	1
0	36121	35.05	2
0	36122	35.05	1
0	36147	35.1	1
0	36148	35.1	2
0	36149	35.1	1
0	36150	35.1	1
0	36151	35.1	2
0	36152	35.1	1
0	36206	35.15	1
0	36207	35.15	2
0	36208	35.15	1
0	36238	35.2	1
0	36239	35.2	2
0	36240	35.2	1
0	36241	35.2	1
0	36242	35.2	2
0	36243	35.2	1
0	36274	35.25	1
0	36275	35.25	2
0	36276	35.25	1
0	36301	35.3	1
0	36302	35.3	2
0	36303	35.3	1
0	36304	35.3	1
0	36305	35.3	2
0	36306	35.3	1
0	36360	35.35	1
0	36361	35.35	2
0	36362	35.35	1
0	36387	35.4	1
0	36388	35.4	2
0	36389	35.4	1
0	36390	35.4	1
0	36391	35.4	2
0	36392	35.4	1
0	36423	35.45	1
0	36424	35.45	2
0	36425	35.45	1
0	36450	35.5	1
0	36451	35.5	2
0	36452	35.5	1
0	36453	35.5	1
0	36454	35.5	2
0	36455	35.5	1
0	36486	35.55	1
0	36487	35.55	2
0	36488	35.55	1
0	36513	35.6	1
0	36514	35.6	2
0	36515	35.6	1
0	36516	35.6	1
0	36517	35.6	2
0	36518	35.6	1
0	36549	35.65	1
0	36550	35.65	2
0	36551	35.65	1
0	36599	35.7	1
0	36600	35.7	2
0	36601	35.7	1
0	36602	35.7	1
0	36603	35.7	2
0	36604	35.7	1
0	36635	35.75	1
0	36636	35.75	2
0	36637	35.75	1
0	36662	35.8	1
0	36663	35.8	2
0	36664	35.8	1
0	36665	35.8	1
0	36666	35.8	2
0	36667	35.8	1
0	36698	35.85	1
0	36699	35.85	2
0	36700	35.85	1
0	36748	35.9	1
0	36749	35.9	2
0	36750	35.9	1
0	36751	35.9	1
0	36752	35.9	2
0	36753	35.9	1
0	36784	35.95	1
0	36785	35.95	2
0	36786	35.95	1
0	36811	36	1
0	36812	36	2
0	36813	36	1
0	36814	36	1
0	36815	36	2
0	36816	36	1
0	36847	36.05	1
0	36848	36.05	2
0	36849	36.05	1
0	36874	36.1	1
0	36875	36.1	2
0	36876	36.1	1
0	36877	36.1	1
0	36878	36.1	2
0	36879	36.1	1
0	36910	36.15	1
0	36911	36.15	2
0	36912	36.15	1
0	36937	36.2	1
0	36938	36.2	2
0	36939	36.2	1
0	36940	36.2	1
0	36941	36.2	2
0	36942	36.2	1
0	36996	36.25	1
0	36997	36.25	2
0	36998	36.25	1
0	37023	36.3	1
0	37024	36.3	2
0	37025	36.3	1
0	37026	36.3	1
0	37027	36.3	2
0	37028	36.3	1
0	37059	36.35	1
0	37060	36.35	2
0	37061	36.35	1
0	37109	36.4	1
0	37110	36.4	2
0	37111	36.4	1
0	37112	36.4	1
0	37113	36.4	2
0	37114	36.4	1
0	37168	36.45	1
0	37169	36.45	2
0	37170	36.45	1
0	37195	36.5	1
0	37196	36.5	2
0	37197	36.5	1
0	37198	36.5	1
0	37199	36.5	2
0	37200	36.5	1
0	37254	36.55	1
0	37255	36.55	2
0	37256	36.55	1
0	37281	36.6	1
0	37282	36.6	2
0	37283	36.6	1
0	37284	36.6	1
0	37285	36.6	2
0	37286	36.6	1
0	37317	36.65	1
0	37318	36.65	2
0	37319	36.65	1
0	37344	36.7	1
0	37345	36.7	2
0	37346	36.7	1
0	37347	36.7	1
0	37348	36.7	2
0	37349	36.7	1
0	37380	36.75	1
0	37381	36.75	2
0	37382	36.75	1
0	37430	36.8	1
0	37431	36.8	2
0	37432	36.8	1
0	37433	36.8	1
0	37434	36.8	2
0	37435	36.8	1
0	37466	36.85	1
0	37467	36.85	2
0	37468	36.85	1
0	37493	36.9	1
0	37494	36.9	2
0	37495	36.9	1
0	37496	36.9	1
0	37497	36.9	2
0	37498	36.9	1
0	37552	36.95	1
0	37553	36.95	2
0	37554	36.95	1
0	37602	37	1
0	37603	37	2
0	37604	37	1
0	37605	37	1
0	37606	37	2
0	37607	37	1
0	37638	37.05	1
0	37639	37.05	2
0	37640	37.05	1
0	37688	37.1	1
0	37689	37.1	2
0	37690	37.1	1
0	37691	37.1	1
0	37692	37.1	2
0	37693	37.1	1
0	37724	37.15	1
0	37725	37.15	2
0	37726	37.15	1
0	37751	37.2	1
0	37752	37.2	2
0	37753	37.2	1
0	37754	37.2	1
0	37755	37.2	2
0	37756	37.2	1
0	37787	37.25	1
0	37788	37.25	2
0	37789	37.25	1
0	37814	37.3	1
0	37815	37.3	2
0	37816	37.3	1
0	37817	37.3	1
0	37818	37.3	2
0	37819	37.3	1
0	37873	37.35	1
0	37874	37.35	2
0	37875	37.35	1
0	37900	37.4	1
0	37901	37.4	2
0	37902	37.4	1
0	37903	37.4	1
0	37904	37.4	2
0	37905	37.4	1
0	37936	37.45	1
0	37937	37.45	2
0	37938	37.45	1
0	37986	37.5	1
0	37987	37.5	2
0	37988	37.5	1
0	37989	37.5	1
0	37990	37.5	2
0	37991	37.5	1
0	38045	37.55	1
0	38046	37.55	2
0	38047	37.55	1
0	38072	37.6	1
0	38073	37.6	2
0	38074	37.6	1
0	38075	37.6	1
0	38076	37.6	2
0	38077	37.6	1
0	38131	37.65	1
0	38132	37.65	2
0	38133	37.65	1
0	38158	37.7	1
0	38159	37.7	2
0	38160	37.7	1
0	38161	37.7	1
0	38162	37.7	2
0	38163	37.7	1
0	38194	37.75	1
0	38195	37.75	2
0	38196	37.75	1
0	38221	37.8	1
0	38222	37.8	2
0	38223	37.8	1
0	38224	37.8	1
0	38225	37.8	2
0	38226	37.8	1
0	38257	37.85	1
0	38258	37.85	2
0	38259	37.85	1
0	38307	37.9	1
0	38308	37.9	2
0	38309	37.9	1
0	38310	37.9	1
0	38311	37.9	2
0	38312	37.9	1
0	38343	37.95	1
0	38344	37.95	2
0	38345	37.95	1
0	38370	38	1
0	38371	38	2
0	38372	38	1
0	38373	38	1
0	38374	38	2
0	38375	38	1
0	38429	38.05	1
0	38430	38.05	2
0	38431	38.05	1
0	38479	38.1	1
0	38480	38.1	2
0	38481	38.1	1
0	38482	38.1	1
0	38483	38.1	2
0	38484	38.1	1
0	38515	38.15	1
0	38516	38.15	2
0	38517	38.15	1
0	38547	38.2	1
0	38548	38.2	2
0	38549	38.2	1
0	38550	38.2	1
0	38551	38.2	2
0	38552	38.2	1
0	38583	38.25	1
0	38584	38.25	2
0	38585	38.25	1
0	38610	38.3	1
0	38611	38.3	2
0	38612	38.3	1
0	38613	38.3	1
0	38614	38.3	2
0	38615	38.3	1
0	38646	38.35	1
0	38647	38.35	2
0	38648	38.35	1
0	38673	38.4	1
0	38674	38.4	2
0	38675	38.4	1
0	38676	38.4	1
0	38677	38.4	2
0	38678	38.4	1
0	38732	38.45	1
0	38733	38.45	2
0	38734	38.45	1
0	38759	38.5	1
0	38760	38.5	2
0	38761	38.5	1
0	38762	38.5	1
0	38763	38.5	2
0	38764	38.5	1
0	38795	38.55	1
0	38796	38.55	2
0	38797	38.55	1
0	38822	38.6	1
0	38823	38.6	2
0	38824	38.6	1
0	38825	38.6	1
0	38826	38.6	2
0	38827	38.6	1
0	38881	38.65	1
0	38882	38.65	2
0	38883	38.65	1
0	38908	38.7	1
0	38909	38.7	2
0	38910	38.7	1
0	38911	38.7	1
0	38912	38.7	2
0	38913	38.7	1
0	38944	38.75	1
0	38945	38.75	2
0	38946	38.75	1
0	38971	38.8	1
0	38972	38.8	2
0	38973	38.8	1
0	38974	38.8	1
0	38975	38.8	2
0	38976	38.8	1
0	39007	38.85	1
0	39008	38.85	2
0	39009	38.85	1
0	39034	38.9	1
0	39035	38.9	2
0	39036	38.9	1
0	39037	38.9	1
0	39038	38.9	2
0	39039	38.9	1
0	39070	38.95	1
0	39071	38.95	2
0	39072	38.95	1
0	39120	39	1
0	39121	39	2
0	39122	39	1
0	39123	39	1
0	39124	39	2
0	39125	39	1
0	39156	39.05	1
0	39157	39.05	2
0	39158	39.05	1
0	39183	39.1	1
0	39184	39.1	2
0	39185	39.1	1
0	39186	39.1	1
0	39187	39.1	2
0	39188	39.1	1
0	39219	39.15	1
0	39220	39.15	2
0	39221	39.15	1
0	39269	39.2	1
0	39270	39.2	2
0	39271	39.2	1
0	39272	39.2	1
0	39273	39.2	2
0	39274	39.2	1
0	39305	39.25	1
0	39306	39.25	2
0	39307	39.25	1
0	39332	39.3	1
0	39333	39.3	2
0	39334	39.3	1
0	39335	39.3	1
0	39336	39.3	2
0	39337	39.3	1
0	39368	39.35	1
0	39369	39.35	2
0	39370	39.35	1
0	39395	39.4	1
0	39396	39.4	2
0	39397	39.4	1
0	39398	39.4	1
0	39399	39.4	2
0	39400	39.4	1
0	39431	39.45	1
0	39432	39.45	2
0	39433	39.45	1
0	39458	39.5	1
0	39459	39.5	2
0	39460	39.5	1
0	39461	39.5	1
0	39462	39.5	2
0	39463	39.5	1
0	39517	39.55	1
0	39518	39.55	2
0	39519	39.55	1
0	39544	39.6	1
0	39545	39.6	2
0	39546	39.6	1
0	39547	39.6	1
0	39548	39.6	2
0	39549	39.6	1
0	39603	39.65	1
0	39604	39.65	2
0	39605	39.65	1
0	39630	39.7	1
0	39631	39.7	2
0	39632	39.7	1
0	39633	39.7	1
0	39634	39.7	2
0	39635	39.7	1
0	39689	39.75	1
0	39690	39.75	2
0	39691	39.75	1
0	39739	39.8	1
0	39740	39.8	2
0	39741	39.8	1
0	39742	39.8	1
0	39743	39.8	2
0	39744	39.8	1
0	39775	39.85	1
0	39776	39.85	2
0	39777	39.85	1
0	39802	39.9	1
0	39803	39.9	2
0	39804	39.9	1
0	39805	39.9	1
0	39806	39.9	2
0	39807	39.9	1
0	39838	39.95	1
0	39839	39.95	2
0	39840	39.95	1
0	39865	40	1
0	39866	40	2
0	39867	40	1
0	39868	40	1
0	39869	40	2
0	39870	40	1
0	39901	40.05	1
0	39902	40.05	2
0	39903	40.05	1
0	39951	40.1	1
0	39952	40.1	2
0	39953	40.1	1
0	39954	40.1	1
0	39955	40.1	2
0	39956	40.1	1
0	39987	40.15	1
0	39988	40.15	2
0	39989	40.15	1
0	40037	40.2	1
0	40038	40.2	2
0	40039	40.2	1
0	40040	40.2	1
0	40041	40.2	2
0	40042	40.2	1
0	40073	40.25	1
0	40074	40.25	2
0	40075	40.25	1
0	40123	40.3	1
0	40124	40.3	2
0	40125	40.3	1
0	40126	40.3	1
0	40127	40.3	2
0	40128	40.3	1
0	40182	40.35	1
0	40183	40.35	2
0	40184	40.35	1
0	40209	40.4	1
0	40210	40.4	2
0	40211	40.4	1
0	40212	40.4	1
0	40213	40.4	2
0	40214	40.4	1
0	40245	40.45	1
0	40246	40.45	2
0	40247	40.45	1
0	40272	40.5	1
0	40273	40.5	2
0	40274	40.5	1
0	40275	40.5	1
0	40276	40.5	2
0	40277	40.5	1
0	40308	40.55	1
0	40309	40.55	2
0	40310	40.55	1
0	40335	40.6	1
0	40336	40.6	2
0	40337	40.6	1
0	40338	40.6	1
0	40339	40.6	2
0	40340	40.6	1
0	40394	40.65	1
0	40395	40.65	2
0	40396	40.65	1
0	40421	40.7	1
0	40422	40.7	2
0	40423	40.7	1
0	40424	40.7	1
0	40425	40.7	2
0	40426	40.7	1
0	40480	40.75	1
0	40481	40.75	2
0	40482	40.75	1
0	40507	40.8	1
0	40508	40.8	2
0	40509	40.8	1
0	40510	40.8	1
0	40511	40.8	2
0	40512	40.8	1
0	40566	40.85	1
0	40567	40.85	2
0	40568	40.85	1
0	40616	40.9	1
0	40617	40.9	2
0	40618	40.9	1
0	40619	40.9	1
0	40620	40.9	2
0	40621	40.9	1
0	40652	40.95	1
0	40653	40.95	2
0	40654	40.95	1
0	40679	41	1
0	40680	41	2
0	40681	41	1
0	40682	41	1
0	40683	41	2
0	40684	41	1
0	40715	41.05	1
0	40716	41.05	2
0	40717	41.05	1
0	40742	41.1	1
0	40743	41.1	2
0	40744	41.1	1
0	40745	41.1	1
0	40746	41.1	2
0	40747	41.1	1
0	40778	41.15	1
0	40779	41.15	2
0	40780	41.15	1
0	40822	41.2	1
0	40823	41.2	2
0	40824	41.2	1
0	40825	41.2	1
0	40826	41.2	2
0	40827	41.2	1
0	40858	41.25	1
0	40859	41.25	2
0	40860	41.25	1
0	40908	41.3	1
0	40909	41.3	2
0	40910	41.3	1
0	40911	41.3	1
0	40912	41.3	2
0	40913	41.3	1
0	40944	41.35	1
0	40945	41.35	2
0	40946	41.35	1
0	40976	41.4	1
0	40977	41.4	2
0	40978	41.4	1
0	40979	41.4	1
0	40980	41.4	2
0	40981	41.4	1
0	41035	41.45	1
0	41036	41.45	2
0	41037	41.45	1
0	41062	41.5	1
0	41063	41.5	2
0	41064	41.5	1
0	41065	41.5	1
0	41066	41.5	2
0	41067	41.5	1
0	41098	41.55	1
0	41099	41.55	2
0	41100	41.55	1
0	41125	41.6	1
0	41126	41.6	2
0	41127	41.6	1
0	41128	41.6	1
0	41129	41.6	2
0	41130	41.6	1
0	41161	41.65	1
0	41162	41.65	2
0	41163	41.65	1
0	41188	41.7	1
0	41189	41.7	2
0	41190	41.7	1
0	41191	41.7	1
0	41192	41.7	2
0	41193	41.7	1
0	41224	41.75	1
0	41225	41.75	2
0	41226	41.75	1
0	41251	41.8	1
0	41252	41.8	2
0	41253	41.8	1
0	41254	41.8	1
0	41255	41.8	2
0	41256	41.8	1
0	41310	41.85	1
0	41311	41.85	2
0	41312	41.85	1
0	41337	41.9	1
0	41338	41.9	2
0	41339	41.9	1
0	41340	41.9	1
0	41341	41.9	2
0	41342	41.9	1
0	41373	41.95	1
0	41374	41.95	2
0	41375	41.95	1
0	41423	42	1
0	41424	42	2
0	41425	42	1
0	41426	42	1
0	41427	42	2
0	41428	42	1
0	41459	42.05	1
0	41460	42.05	2
0	41461	42.05	1
0	41486	42.1	1
0	41487	42.1	2
0	41488	42.1	1
0	41489	42.1	1
0	41490	42.1	2
0	41491	42.1	1
0	41522	42.15	1
0	41523	42.15	2
0	41524	42.15	1
0	41549	42.2	1
0	41550	42.2	2
0	41551	42.2	1
0	41552	42.2	1
0	41553	42.2	2
0	41554	42.2	1
0	41585	42.25	1
0	41586	42.25	2
0	41587	42.25	1
0	41612	42.3	1
0	41613	42.3	2
0	41614	42.3	1
0	41615	42.3	1
0	41616	42.3	2
0	41617	42.3	1
0	41648	42.35	1
0	41649	42.35	2
0	41650	42.35	1
0	41698	42.4	1
0	41699	42.4	2
0	41700	42.4	1
0	41701	42.4	1
0	41702	42.4	2
0	41703	42.4	1
0	41734	42.45	1
0	41735	42.45	2
0	41736	42.45	1
0	41761	42.5	1
0	41762	42.5	2
0	41763	42.5	1
0	41764	42.5	1
0	41765	42.5	2
0	41766	42.5	1
0	41820	42.55	1
0	41821	42.55	2
0	41822	42.55	1
0	41847	42.6	1
0	41848	42.6	2
0	41849	42.6	1
0	41850	42.6	1
0	41851	42.6	2
0	41852	42.6	1
0	41883	42.65	1
0	41884	42.65	2
0	41885	42.65	1
0	41910	42.7	1
0	41911	42.7	2
0	41912	42.7	1
0	41913	42.7	1
0	41914	42.7	2
0	41915	42.7	1
0	41946	42.75	1
0	41947	42.75	2
0	41948	42.75	1
0	41996	42.8	1
0	41997	42.8	2
0	41998	42.8	1
0	41999	42.8	1
0	42000	42.8	2
0	42001	42.8	1
0	42032	42.85	1
0	42033	42.85	2
0	42034	42.85	1
0	42059	42.9	1
0	42060	42.9	2
0	42061	42.9	1
0	42062	42.9	1
0	42063	42.9	2
0	42064	42.9	1
0	42141	42.95	1
0	42142	42.95	2
0	42143	42.95	1
0	42168	43	1
0	42169	43	2
0	42170	43	1
0	42171	43	1
0	42172	43	2
0	42173	43	1
0	42204	43.05	1
0	42205	43.05	2
0	42206	43.05	1
0	42248	43.1	1
0	42249	43.1	2
0	42250	43.1	1
0	42251	43.1	1
0	42252	43.1	2
0	42253	43.1	1
0	42284	43.15	1
0	42285	43.15	2
0	42286	43.15	1
0	42311	43.2	1
0	42312	43.2	2
0	42313	43.2	1
0	42314	43.2	1
0	42315	43.2	2
0	42316	43.2	1
0	42347	43.25	1
0	42348	43.25	2
0	42349	43.25	1
0	42374	43.3	1
0	42375	43.3	2
0	42376	43.3	1
0	42377	43.3	1
0	42378	43.3	2
0	42379	43.3	1
0	42433	43.35	1
0	42434	43.35	2
0	42435	43.35	1
0	42460	43.4	1
0	42461	43.4	2
0	42462	43.4	1
0	42463	43.4	1
0	42464	43.4	2
0	42465	43.4	1
0	42496	43.45	1
0	42497	43.45	2
0	42498	43.45	1
0	42551	43.5	1
0	42552	43.5	2
0	42553	43.5	1
0	42554	43.5	1
0	42555	43.5	2
0	42556	43.5	1
0	42587	43.55	1
0	42588	43.55	2
0	42589	43.55	1
0	42614	43.6	1
0	42615	43.6	2
0	42616	43.6	1
0	42617	43.6	1
0	42618	43.6	2
0	42619	43.6	1
0	42650	43.65	1
0	42651	43.65	2
0	42652	43.65	1
0	42677	43.7	1
0	42678	43.7	2
0	42679	43.7	1
0	42680	43.7	1
0	42681	43.7	2
0	42682	43.7	1
0	42713	43.75	1
0	42714	43.75	2
0	42715	43.75	1
0	42740	43.8	1
0	42741	43.8	2
0	42742	43.8	1
0	42743	43.8	1
0	42744	43.8	2
0	42745	43.8	1
0	42776	43.85	1
0	42777	43.85	2
0	42778	43.85	1
0	42826	43.9	1
0	42827	43.9	2
0	42828	43.9	1
0	42829	43.9	1
0	42830	43.9	2
0	42831	43.9	1
0	42862	43.95	1
0	42863	43.95	2
0	42864	43.95	1
0	42889	44	1
0	42890	44	2
0	42891	44	1
0	42892	44	1
0	42893	44	2
0	42894	44	1
0	42948	44.05	1
0	42949	44.05	2
0	42950	44.05	1
0	42975	44.1	1
0	42976	44.1	2
0	42977	44.1	1
0	42978	44.1	1
0	42979	44.1	2
0	42980	44.1	1
0	43011	44.15	1
0	43012	44.15	2
0	43013	44.15	1
0	43038	44.2	1
0	43039	44.2	2
0	43040	44.2	1
0	43041	44.2	1
0	43042	44.2	2
0	43043	44.2	1
0	43074	44.25	1
0	43075	44.25	2
0	43076	44.25	1
0	43101	44.3	1
0	43102	44.3	2
0	43103	44.3	1
0	43104	44.3	1
0	43105	44.3	2
0	43106	44.3	1
0	43137	44.35	1
0	43138	44.35	2
0	43139	44.35	1
0	43164	44.4	1
0	43165	44.4	2
0	43166	44.4	1
0	43167	44.4	1
0	43168	44.4	2
0	43169	44.4	1
0	43223	44.45	1
0	43224	44.45	2
0	43225	44.45	1
0	43250	44.5	1
0	43251	44.5	2
0	43252	44.5	1
0	43253	44.5	1
0	43254	44.5	2
0	43255	44.5	1
0	43286	44.55	1
0	43287	44.55	2
0	43288	44.55	1
0	43336	44.6	1
0	43337	44.6	2
0	43338	44.6	1
0	43339	44.6	1
0	43340	44.6	2
0	43341	44.6	1
0	43372	44.65	1
0	43373	44.65	2
0	43374	44.65	1
0	43416	44.7	1
0	43417	44.7	2
0	43418	44.7	1
0	43419	44.7	1
0	43420	44.7	2
0	43421	44.7	1
0	43452	44.75	1
0	43453	44.75	2
0	43454	44.75	1
0	43479	44.8	1
0	43480	44.8	2
0	43481	44.8	1
0	43482	44.8	1
0	43483	44.8	2
0	43484	44.8	1
0	43538	44.85	1
0	43539	44.85	2
0	43540	44.85	1
0	43565	44.9	1
0	43566	44.9	2
0	43567	44.9	1
0	43568	44.9	1
0	43569	44.9	2
0	43570	44.9	1
0	43601	44.95	1
0	43602	44.95	2
0	43603	44.95	1
0	43651	45	1
0	43652	45	2
0	43653	45	1
0	43654	45	1
0	43655	45	2
0	43656	45	1
0	43687	45.05	1
0	43688	45.05	2
0	43689	45.05	1
0	43714	45.1	1
0	43715	45.1	2
0	43716	45.1	1
0	43717	45.1	1
0	43718	45.1	2
0	43719	45.1	1
0	43773	45.15	1
0	43774	45.15	2
0	43775	45.15	1
0	43800	45.2	1
0	43801	45.2	2
0	43802	45.2	1
0	43803	45.2	1
0	43804	45.2	2
0	43805	45.2	1
0	43859	45.25	1
0	43860	45.25	2
0	43861	45.25	1
0	43886	45.3	1
0	43887	45.3	2
0	43888	45.3	1
0	43889	45.3	1
0	43890	45.3	2
0	43891	45.3	1
0	43922	45.35	1
0	43923	45.35	2
0	43924	45.35	1
0	43972	45.4	1
0	43973	45.4	2
0	43974	45.4	1
0	43975	45.4	1
0	43976	45.4	2
0	43977	45.4	1
0	44008	45.45	1
0	44009	45.45	2
0	44010	45.45	1
0	44035	45.5	1
0	44036	45.5	2
0	44037	45.5	1
0	44038	45.5	1
0	44039	45.5	2
0	44040	45.5	1
0	44094	45.55	1
0	44095	45.55	2
0	44096	45.55	1
0	44121	45.6	1
0	44122	45.6	2
0	44123	45.6	1
0	44124	45.6	1
0	44125	45.6	2
0	44126	45.6	1
0	44157	45.65	1
0	44158	45.65	2
0	44159	45.65	1
0	44201	45.7	1
0	44202	45.7	2
0	44203	45.7	1
0	44204	45.7	1
0	44205	45.7	2
0	44206	45.7	1
0	44237	45.75	1
0	44238	45.75	2
0	44239	45.75	1
0	44287	45.8	1
0	44288	45.8	2
0	44289	45.8	1
0	44290	45.8	1
0	44291	45.8	2
0	44292	45.8	1
0	44323	45.85	1
0	44324	45.85	2
0	44325	45.85	1
0	44350	45.9	1
0	44351	45.9	2
0	44352	45.9	1
0	44353	45.9	1
0	44354	45.9	2
0	44355	45.9	1
0	44409	45.95	1
0	44410	45.95	2
0	44411	45.95	1
0	44436	46	1
0	44437	46	2
0	44438	46	1
0	44439	46	1
0	44440	46	2
0	44441	46	1
0	44472	46.05	1
0	44473	46.05	2
0	44474	46.05	1
0	44522	46.1	1
0	44523	46.1	2
0	44524	46.1	1
0	44525	46.1	1
0	44526	46.1	2
0	44527	46.1	1
0	44558	46.15	1
0	44559	46.15	2
0	44560	46.15	1
0	44585	46.2	1
0	44586	46.2	2
0	44587	46.2	1
0	44588	46.2	1
0	44589	46.2	2
0	44590	46.2	1
0	44644	46.25	1
0	44645	46.25	2
0	44646	46.25	1
0	44671	46.3	1
0	44672	46.3	2
0	44673	46.3	1
0	44674	46.3	1
0	44675	46.3	2
0	44676	46.3	1
0	44730	46.35	1
0	44731	46.35	2
0	44732	46.35	1
0	44757	46.4	1
0	44758	46.4	2
0	44759	46.4	1
0	44760	46.4	1
0	44761	46.4	2
0	44762	46.4	1
0	44793	46.45	1
0	44794	46.45	2
0	44795	46.45	1
0	44843	46.5	1
0	44844	46.5	2
0	44845	46.5	1
0	44846	46.5	1
0	44847	46.5	2
0	44848	46.5	1
0	44879	46.55	1
0	44880	46.55	2
0	44881	46.55	1
0	44906	46.6	1
0	44907	46.6	2
0	44908	46.6	1
0	44909	46.6	1
0	44910	46.6	2
0	44911	46.6	1
0	44965	46.65	1
0	44966	46.65	2
0	44967	46.65	1
0	44992	46.7	1
0	44993	46.7	2
0	44994	46.7	1
0	44995	46.7	1
0	44996	46.7	2
0	44997	46.7	1
0	45028	46.75	1
0	45029	46.75	2
0	45030	46.75	1
0	45078	46.8	1
0	45079	46.8	2
0	45080	46.8	1
0	45081	46.8	1
0	45082	46.8	2
0	45083	46.8	1
0	45114	46.85	1
0	45115	46.85	2
0	45116	46.85	1
0	45164	46.9	1
0	45165	46.9	2
0	45166	46.9	1
0	45167	46.9	1
0	45168	46.9	2
0	45169	46.9	1
0	45200	46.95	1
0	45201	46.95	2
0	45202	46.95	1
0	45227	47	1
0	45228	47	2
0	45229	47	1
0	45230	47	1
0	45231	47	2
0	45232	47	1
0	45286	47.05	1
0	45287	47.05	2
0	45288	47.05	1
0	45313	47.1	1
0	45314	47.1	2
0	45315	47.1	1
0	45316	47.1	1
0	45317	47.1	2
0	45318	47.1	1
0	45349	47.15	1
0	45350	47.15	2
0	45351	47.15	1
0	45399	47.2	1
0	45400	47.2	2
0	45401	47.2	1
0	45402	47.2	1
0	45403	47.2	2
0	45404	47.2	1
0	45435	47.25	1
0	45436	47.25	2
0	45437	47.25	1
0	45462	47.3	1
0	45463	47.3	2
0	45464	47.3	1
0	45465	47.3	1
0	45466	47.3	2
0	45467	47.3	1
0	45515	47.35	1
0	45516	47.35	2
0	45517	47.35	1
0	45542	47.4	1
0	45543	47.4	2
0	45544	47.4	1
0	45545	47.4	1
0	45546	47.4	2
0	45547	47.4	1
0	45601	47.45	1
0	45602	47.45	2
0	45603	47.45	1
0	45628	47.5	1
0	45629	47.5	2
0	45630	47.5	1
0	45631	47.5	1
0	45632	47.5	2
0	45633	47.5	1
0	45664	47.55	1
0	45665	47.55	2
0	45666	47.55	1
0	45714	47.6	1
0	45715	47.6	2
0	45716	47.6	1
0	45717	47.6	1
0	45718	47.6	2
0	45719	47.6	1
0	45750	47.65	1
0	45751	47.65	2
0	45752	47.65	1
0	45777	47.7	1
0	45778	47.7	2
0	45779	47.7	1
0	45780	47.7	1
0	45781	47.7	2
0	45782	47.7	1
0	45836	47.75	1
0	45837	47.75	2
0	45838	47.75	1
0	45863	47.8	1
0	45864	47.8	2
0	45865	47.8	1
0	45866	47.8	1
0	45867	47.8	2
0	45868	47.8	1
0	45899	47.85	1
0	45900	47.85	2
0	45901	47.85	1
0	45949	47.9	1
0	45950	47.9	2
0	45951	47.9	1
0	45952	47.9	1
0	45953	47.9	2
0	45954	47.9	1
0	45985	47.95	1
0	45986	47.95	2
0	45987	47.95	1
0	46035	48	1
0	46036	48	2
0	46037	48	1
0	46038	48	1
0	46039	48	2
0	46040	48	1
0	46071	48.05	1
0	46072	48.05	2
0	46073	48.05	1
0	46098	48.1	1
0	46099	48.1	2
0	46100	48.1	1
0	46101	48.1	1
0	46102	48.1	2
0	46103	48.1	1
0	46157	48.15	1
0	46158	48.15	2
0	46159	48.15	1
0	46184	48.2	1
0	46185	48.2	2
0	46186	48.2	1
0	46187	48.2	1
0	46188	48.2	2
0	46189	48.2	1
0	46220	48.25	1
0	46221	48.25	2
0	46222	48.25	1
0	46270	48.3	1
0	46271	48.3	2
0	46272	48.3	1
0	46273	48.3	1
0	46274	48.3	2
0	46275	48.3	1
0	46306	48.35	1
0	46307	48.35	2
0	46308	48.35	1
0	46333	48.4	1
0	46334	48.4	2
0	46335	48.4	1
0	46336	48.4	1
0	46337	48.4	2
0	46338	48.4	1
0	46386	48.45	1
0	46387	48.45	2
0	46388	48.45	1
0	46413	48.5	1
0	46414	48.5	2
0	46415	48.5	1
0	46416	48.5	1
0	46417	48.5	2
0	46418	48.5	1
0	46454	48.55	1
0	46455	48.55	2
0	46456	48.55	1
0	46481	48.6	1
0	46482	48.6	2
0	46483	48.6	1
0	46484	48.6	1
0	46485	48.6	2
0	46486	48.6	1
0	46517	48.65	1
0	46518	48.65	2
0	46519	48.65	1
0	46544	48.7	1
0	46545	48.7	2
0	46546	48.7	1
0	46547	48.7	1
0	46548	48.7	2
0	46549	48.7	1
0	46580	48.75	1
0	46581	48.75	2
0	46582	48.75	1
0	46607	48.8	1
0	46608	48.8	2
0	46609	48.8	1
0	46610	48.8	1
0	46611	48.8	2
0	46612	48.8	1
0	46666	48.85	1
0	46667	48.85	2
0	46668	48.85	1
0	46693	48.9	1
0	46694	48.9	2
0	46695	48.9	1
0	46696	48.9	1
0	46697	48.9	2
0	46698	48.9	1
0	46729	48.95	1
0	46730	48.95	2
0	46731	48.95	1
0	46779	49	1
0	46780	49	2
0	46781	49	1
0	46782	49	1
0	46783	49	2
0	46784	49	1
0	46815	49.05	1
0	46816	49.05	2
0	46817	49.05	1
0	46842	49.1	1
0	46843	49.1	2
0	46844	49.1	1
0	46845	49.1	1
0	46846	49.1	2
0	46847	49.1	1
0	46878	49.15	1
0	46879	49.15	2
0	46880	49.15	1
0	46905	49.2	1
0	46906	49.2	2
0	46907	49.2	1
0	46908	49.2	1
0	46909	49.2	2
0	46910	49.2	1
0	46941	49.25	1
0	46942	49.25	2
0	46943	49.25	1
0	46968	49.3	1
0	46969	49.3	2
0	46970	49.3	1
0	46971	49.3	1
0	46972	49.3	2
0	46973	49.3	1
0	47004	49.35	1
0	47005	49.35	2
0	47006	49.35	1
0	47054	49.4	1
0	47055	49.4	2
0	47056	49.4	1
0	47057	49.4	1
0	47058	49.4	2
0	47059	49.4	1
0	47090	49.45	1
0	47091	49.45	2
0	47092	49.45	1
0	47117	49.5	1
0	47118	49.5	2
0	47119	49.5	1
0	47120	49.5	1
0	47121	49.5	2
0	47122	49.5	1
0	47176	49.55	1
0	47177	49.55	2
0	47178	49.55	1
0	47203	49.6	1
0	47204	49.6	2
0	47205	49.6	1
0	47206	49.6	1
0	47207	49.6	2
0	47208	49.6	1
0	47239	49.65	1
0	47240	49.65	2
0	47241	49.65	1
0	47266	49.7	1
0	47267	49.7	2
0	47268	49.7	1
0	47269	49.7	1
0	47270	49.7	2
0	47271	49.7	1
0	47325	49.75	1
0	47326	49.75	2
0	47327	49.75	1
0	47352	49.8	1
0	47353	49.8	2
0	47354	49.8	1
0	47355	49.8	1
0	47356	49.8	2
0	47357	49.8	1
0	47388	49.85	1
0	47389	49.85	2
0	47390	49.85	1
0	47438	49.9	1
0	47439	49.9	2
0	47440	49.9	1
0	47441	49.9	1
0	47442	49.9	2
0	47443	49.9	1
0	47479	49.95	1
0	47480	49.95	2
0	47481	49.95	1
0	47506	50	1
0	47507	50	2
0	47508	50	1
0	47509	50	1
0	47510	50	2
0	47511	50	1
0	47542	50.05	1
0	47543	50.05	2
0	47544	50.05	1
0	47569	50.1	1
0	47570	50.1	2
0	47571	50.1	1
0	47572	50.1	1
0	47573	50.1	2
0	47574	50.1	1
0	47605	50.15	1
0	47606	50.15	2
0	47607	50.15	1
0	47632	50.2	1
0	47633	50.2	2
0	47634	50.2	1
0	47635	50.2	1
0	47636	50.2	2
0	47637	50.2	1
0	47668	50.25	1
0	47669	50.25	2
0	47670	50.25	1
0	47718	50.3	1
0	47719	50.3	2
0	47720	50.3	1
0	47721	50.3	1
0	47722	50.3	2
0	47723	50.3	1
0	47754	50.35	1
0	47755	50.35	2
0	47756	50.35	1
0	47781	50.4	1
0	47782	50.4	2
0	47783	50.4	1
0	47784	50.4	1
0	47785	50.4	2
0	47786	50.4	1
0	47840	50.45	1
0	47841	50.45	2
0	47842	50.45	1
0	47867	50.5	1
0	47868	50.5	2
0	47869	50.5	1
0	47870	50.5	1
0	47871	50.5	2
0	47872	50.5	1
0	47903	50.55	1
0	47904	50.55	2
0	47905	50.55	1
0	47930	50.6	1
0	47931	50.6	2
0	47932	50.6	1
0	47933	50.6	1
0	47934	50.6	2
0	47935	50.6	1
0	47966	50.65	1
0	47967	50.65	2
0	47968	50.65	1
0	47993	50.7	1
0	47994	50.7	2
0	47995	50.7	1
0	47996	50.7	1
0	47997	50.7	2
0	47998	50.7	1
0	48029	50.75	1
0	48030	50.75	2
0	48031	50.75	1
0	48056	50.8	1
0	48057	50.8	2
0	48058	50.8	1
0	48059	50.8	1
0	48060	50.8	2
0	48061	50.8	1
0	48115	50.85	1
0	48116	50.85	2
0	48117	50.85	1
0	48142	50.9	1
0	48143	50.9	2
0	48144	50.9	1
0	48145	50.9	1
0	48146	50.9	2
0	48147	50.9	1
0	48178	50.95	1
0	48179	50.95	2
0	48180	50.95	1
0	48228	51	1
0	48229	51	2
0	48230	51	1
0	48231	51	1
0	48232	51	2
0	48233	51	1
0	48264	51.05	1
0	48265	51.05	2
0	48266	51.05	1
0	48291	51.1	1
0	48292	51.1	2
0	48293	51.1	1
0	48294	51.1	1
0	48295	51.1	2
0	48296	51.1	1
0	48350	51.15	1
0	48351	51.15	2
0	48352	51.15	1
0	48377	51.2	1
0	48378	51.2	2
0	48379	51.2	1
0	48380	51.2	1
0	48381	51.2	2
0	48382	51.2	1
0	48413	51.25	1
0	48414	51.25	2
0	48415	51.25	1
0	48463	51.3	1
0	48464	51.3	2
0	48465	51.3	1
0	48466	51.3	1
0	48467	51.3	2
0	48468	51.3	1
0	48499	51.35	1
0	48500	51.35	2
0	48501	51.35	1
0	48549	51.4	1
0	48550	51.4	2
0	48551	51.4	1
0	48552	51.4	1
0	48553	51.4	2
0	48554	51.4	1
0	48585	51.45	1
0	48586	51.45	2
0	48587	51.45	1
0	48612	51.5	1
0	48613	51.5	2
0	48614	51.5	1
0	48615	51.5	1
0	48616	51.5	2
0	48617	51.5	1
0	48671	51.55	1
0	48672	51.55	2
0	48673	51.55	1
0	48698	51.6	1
0	48699	51.6	2
0	48700	51.6	1
0	48701	51.6	1
0	48702	51.6	2
0	48703	51.6	1
0	48734	51.65	1
0	48735	51.65	2
0	48736	51.65	1
0	48784	51.7	1
0	48785	51.7	2
0	48786	51.7	1
0	48787	51.7	1
0	48788	51.7	2
0	48789	51.7	1
0	48820	51.75	1
0	48821	51.75	2
0	48822	51.75	1
0	48847	51.8	1
0	48848	51.8	2
0	48849	51.8	1
0	48850	51.8	1
0	48851	51.8	2
0	48852	51.8	1
0	48906	51.85	1
0	48907	51.85	2
0	48908	51.85	1
0	48933	51.9	1
0	48934	51.9	2
0	48935	51.9	1
0	48936	51.9	1
0	48937	51.9	2
0	48938	51.9	1
0	48992	51.95	1
0	48993	51.95	2
0	48994	51.95	1
0	49019	52	1
0	49020	52	2
0	49021	52	1
0	49022	52	1
0	49023	52	2
0	49024	52	1
0	49055	52.05	1
0	49056	52.05	2
0	49057	52.05	1
0	49105	52.1	1
0	49106	52.1	2
0	49107	52.1	1
0	49108	52.1	1
0	49109	52.1	2
0	49110	52.1	1
0	49141	52.15	1
0	49142	52.15	2
0	49143	52.15	1
0	49168	52.2	1
0	49169	52.2	2
0	49170	52.2	1
0	49171	52.2	1
0	49172	52.2	2
0	49173	52.2	1
0	49227	52.25	1
0	49228	52.25	2
0	49229	52.25	1
0	49254	52.3	1
0	49255	52.3	2
0	49256	52.3	1
0	49257	52.3	1
0	49258	52.3	2
0	49259	52.3	1
0	49290	52.35	1
0	49291	52.35	2
0	49292	52.35	1
0	49340	52.4	1
0	49341	52.4	2
0	49342	52.4	1
0	49343	52.4	1
0	49344	52.4	2
0	49345	52.4	1
0	49376	52.45	1
0	49377	52.45	2
0	49378	52.45	1
0	49426	52.5	1
0	49427	52.5	2
0	49428	52.5	1
0	49429	52.5	1
0	49430	52.5	2
0	49431	52.5	1
0	49462	52.55	1
0	49463	52.55	2
0	49464	52.55	1
0	49489	52.6	1
0	49490	52.6	2
0	49491	52.6	1
0	49492	52.6	1
0	49493	52.6	2
0	49494	52.6	1
0	49548	52.65	1
0	49549	52.65	2
0	49550	52.65	1
0	49575	52.7	1
0	49576	52.7	2
0	49577	52.7	1
0	49578	52.7	1
0	49579	52.7	2
0	49580	52.7	1
0	49611	52.75	1
0	49612	52.75	2
0	49613	52.75	1
0	49661	52.8	1
0	49662	52.8	2
0	49663	52.8	1
0	49664	52.8	1
0	49665	52.8	2
0	49666	52.8	1
0	49697	52.85	1
0	49698	52.85	2
0	49699	52.85	1
0	49724	52.9	1
0	49725	52.9	2
0	49726	52.9	1
0	49727	52.9	1
0	49728	52.9	2
0	49729	52.9	1
0	49783	52.95	1
0	49784	52.95	2
0	49785	52.95	1
0	49810	53	1
0	49811	53	2
0	49812	53	1
0	49813	53	1
0	49814	53	2
0	49815	53	1
0	49869	53.05	1
0	49870	53.05	2
0	49871	53.05	1
0	49896	53.1	1
0	49897	53.1	2
0	49898	53.1	1
0	49899	53.1	1
0	49900	53.1	2
0	49901	53.1	1
0	49932	53.15	1
0	49933	53.15	2
0	49934	53.15	1
0	49982	53.2	1
0	49983	53.2	2
0	49984	53.2	1
0	49985	53.2	1
0	49986	53.2	2
0	49987	53.2	1
0	50018	53.25	1
0	50019	53.25	2
0	50020	53.25	1
0	50045	53.3	1
0	50046	53.3	2
0	50047	53.3	1
0	50048	53.3	1
0	50049	53.3	2
0	50050	53.3	1
0	50104	53.35	1
0	50105	53.35	2
0	50106	53.35	1
0	50131	53.4	1
0	50132	53.4	2
0	50133	53.4	1
0	50134	53.4	1
0	50135	53.4	2
0	50136	53.4	1
0	50167	53.45	1
0	50168	53.45	2
0	50169	53.45	1
0	50217	53.5	1
0	50218	53.5	2
0	50219	53.5	1
0	50220	53.5	1
0	50221	53.5	2
0	50222	53.5	1
0	50253	53.55	1
0	50254	53.55	2
0	50255	53.55	1
0	50297	53.6	1
0	50298	53.6	2
0	50299	53.6	1
0	50300	53.6	1
0	50301	53.6	2
0	50302	53.6	1
0	50333	53.65	1
0	50334	53.65	2
0	50335	53.65	1
0	50360	53.7	1
0	50361	53.7	2
0	50362	53.7	1
0	50363	53.7	1
0	50364	53.7	2
0	50365	53.7	1
0	50419	53.75	1
0	50420	53.75	2
0	50421	53.75	1
0	50446	53.8	1
0	50447	53.8	2
0	50448	53.8	1
0	50449	53.8	1
0	50450	53.8	2
0	50451	53.8	1
0	50482	53.85	1
0	50483	53.85	2
0	50484	53.85	1
0	50532	53.9	1
0	50533	53.9	2
0	50534	53.9	1
0	50535	53.9	1
0	50536	53.9	2
0	50537	53.9	1
0	50568	53.95	1
0	50569	53.95	2
0	50570	53.95	1
0	50595	54	1
0	50596	54	2
0	50597	54	1
0	50598	54	1
0	50599	54	2
0	50600	54	1
0	50636	54.05	1
0	50637	54.05	2
0	50638	54.05	1
0	50663	54.1	1
0	50664	54.1	2
0	50665	54.1	1
0	50666	54.1	1
0	50667	54.1	2
0	50668	54.1	1
0	50704	54.15	1
0	50705	54.15	2
0	50706	54.15	1
0	50731	54.2	1
0	50732	54.2	2
0	50733	54.2	1
0	50734	54.2	1
0	50735	54.2	2
0	50736	54.2	1
0	50767	54.25	1
0	50768	54.25	2
0	50769	54.25	1
0	50794	54.3	1
0	50795	54.3	2
0	50796	54.3	1
0	50797	54.3	1
0	50798	54.3	2
0	50799	54.3	1
0	50830	54.35	1
0	50831	54.35	2
0	50832	54.35	1
0	50857	54.4	1
0	50858	54.4	2
0	50859	54.4	1
0	50860	54.4	1
0	50861	54.4	2
0	50862	54.4	1
0	50893	54.45	1
0	50894	54.45	2
0	50895	54.45	1
0	50920	54.5	1
0	50921	54.5	2
0	50922	54.5	1
0	50923	54.5	1
0	50924	54.5	2
0	50925	54.5	1
0	50956	54.55	1
0	50957	54.55	2
0	50958	54.55	1
0	50983	54.6	1
0	50984	54.6	2
0	50985	54.6	1
0	50986	54.6	1
0	50987	54.6	2
0	50988	54.6	1
0	51019	54.65	1
0	51020	54.65	2
0	51021	54.65	1
0	51046	54.7	1
0	51047	54.7	2
0	51048	54.7	1
0	51049	54.7	1
0	51050	54.7	2
0	51051	54.7	1
0	51082	54.75	1
0	51083	54.75	2
0	51084	54.75	1
0	51109	54.8	1
0	51110	54.8	2
0	51111	54.8	1
0	51112	54.8	1
0	51113	54.8	2
0	51114	54.8	1
0	51145	54.85	1
0	51146	54.85	2
0	51147	54.85	1
0	51172	54.9	1
0	51173	54.9	2
0	51174	54.9	1
0	51175	54.9	1
0	51176	54.9	2
0	51177	54.9	1
0	51208	54.95	1
0	51209	54.95	2
0	51210	54.95	1
0	51235	55	1
0	51236	55	2
0	51237	55	1
0	51238	55	1
0	51239	55	2
0	51240	55	1
0	51271	55.05	1
0	51272	55.05	2
0	51273	55.05	1
0	51298	55.1	1
0	51299	55.1	2
0	51300	55.1	1
0	51301	55.1	1
0	51302	55.1	2
0	51303	55.1	1
0	51334	55.15	1
0	51335	55.15	2
0	51336	55.15	1
0	51361	55.2	1
0	51362	55.2	2
0	51363	55.2	1
0	51364	55.2	1
0	51365	55.2	2
0	51366	55.2	1
0	51397	55.25	1
0	51398	55.25	2
0	51399	55.25	1
0	51424	55.3	1
0	51425	55.3	2
0	51426	55.3	1
0	51427	55.3	1
0	51428	55.3	2
0	51429	55.3	1
0	51483	55.35	1
0	51484	55.35	2
0	51485	55.35	1
0	51510	55.4	1
0	51511	55.4	2
0	51512	55.4	1
0	51513	55.4	1
0	51514	55.4	2
0	51515	55.4	1
0	51546	55.45	1
0	51547	55.45	2
0	51548	55.45	1
0	51613	55.5	1
0	51614	55.5	2
0	51615	55.5	1
0	51616	55.5	1
0	51617	55.5	2
0	51618	55.5	1
0	51649	55.55	1
0	51650	55.55	2
0	51651	55.55	1
0	51676	55.6	1
0	51677	55.6	2
0	51678	55.6	1
0	51679	55.6	1
0	51680	55.6	2
0	51681	55.6	1
0	51735	55.65	1
0	51736	55.65	2
0	51737	55.65	1
0	51762	55.7	1
0	51763	55.7	2
0	51764	55.7	1
0	51765	55.7	1
0	51766	55.7	2
0	51767	55.7	1
0	51798	55.75	1
0	51799	55.75	2
0	51800	55.75	1
0	51825	55.8	1
0	51826	55.8	2
0	51827	55.8	1
0	51828	55.8	1
0	51829	55.8	2
0	51830	55.8	1
0	51861	55.85	1
0	51862	55.85	2
0	51863	55.85	1
0	51911	55.9	1
0	51912	55.9	2
0	51913	55.9	1
0	51914	55.9	1
0	51915	55.9	2
0	51916	55.9	1
0	51947	55.95	1
0	51948	55.95	2
0	51949	55.95	1
0	51974	56	1
0	51975	56	2
0	51976	56	1
0	51977	56	1
0	51978	56	2
0	51979	56	1
0	52050	56.05	1
0	52051	56.05	2
0	52052	56.05	1
0	52077	56.1	1
0	52078	56.1	2
0	52079	56.1	1
0	52080	56.1	1
0	52081	56.1	2
0	52082	56.1	1
0	52113	56.15	1
0	52114	56.15	2
0	52115	56.15	1
0	52163	56.2	1
0	52164	56.2	2
0	52165	56.2	1
0	52166	56.2	1
0	52167	56.2	2
0	52168	56.2	1
0	52199	56.25	1
0	52200	56.25	2
0	52201	56.25	1
0	52226	56.3	1
0	52227	56.3	2
0	52228	56.3	1
0	52229	56.3	1
0	52230	56.3	2
0	52231	56.3	1
0	52262	56.35	1
0	52263	56.35	2
0	52264	56.35	1
0	52289	56.4	1
0	52290	56.4	2
0	52291	56.4	1
0	52292	56.4	1
0	52293	56.4	2
0	52294	56.4	1
0	52348	56.45	1
0	52349	56.45	2
0	52350	56.45	1
0	52375	56.5	1
0	52376	56.5	2
0	52377	56.5	1
0	52378	56.5	1
0	52379	56.5	2
0	52380	56.5	1
0	52411	56.55	1
0	52412	56.55	2
0	52413	56.55	1
0	52484	56.6	1
0	52485	56.6	2
0	52486	56.6	1
0	52487	56.6	1
0	52488	56.6	2
0	52489	56.6	1
0	52520	56.65	1
0	52521	56.65	2
0	52522	56.65	1
0	52547	56.7	1
0	52548	56.7	2
0	52549	56.7	1
0	52550	56.7	1
0	52551	56.7	2
0	52552	56.7	1
0	52588	56.75	1
0	52589	56.75	2
0	52590	56.75	1
0	52615	56.8	1
0	52616	56.8	2
0	52617	56.8	1
0	52618	56.8	1
0	52619	56.8	2
0	52620	56.8	1
0	52651	56.85	1
0	52652	56.85	2
0	52653	56.85	1
0	52678	56.9	1
0	52679	56.9	2
0	52680	56.9	1
0	52681	56.9	1
0	52682	56.9	2
0	52683	56.9	1
0	52714	56.95	1
0	52715	56.95	2
0	52716	56.95	1
0	52764	57	1
0	52765	57	2
0	52766	57	1
0	52767	57	1
0	52768	57	2
0	52769	57	1
0	52800	57.05	1
0	52801	57.05	2
0	52802	57.05	1
0	52827	57.1	1
0	52828	57.1	2
0	52829	57.1	1
0	52830	57.1	1
0	52831	57.1	2
0	52832	57.1	1
[...]
2	11736	8.538453456134	34404
2	11747	8.540661798028	34545
2	11792	8.552293456134	34686
2	11803	8.554501798028	34827
2	11821	8.566133456134	34968
2	11832	8.568341798028	35109
2	11850	8.579973456134	35250
2	11861	8.582181798028	35391
2	11879	8.593813456134	35532
2	11890	8.596021798028	35673
2	11944	8.607653456134	35814
2	11955	8.609861798028	35955
2	11973	8.621493456134	36096
2	11984	8.623701798028	36237
2	12002	8.635333456134	36378
2	12013	8.637541798028	36519
2	12031	8.649173456134	36660
2	12069	8.651381798028	36801
2	12087	8.663013456134	36942
2	12098	8.665221798028	37083
2	12116	8.676853456134	37224
2	12127	8.679061798028	37365
2	12145	8.690693456134	37506
2	12156	8.692901798028	37647
2	12214	8.704533456134	37788
2	12225	8.706741798028	37929
2	12255	8.718373456134	38070
2	12266	8.720581798028	38211
2	12284	8.732213456134	38352
2	12295	8.734421798028	38493
2	12313	8.746053456134	38634
2	12324	8.748261798028	38775
2	12369	8.759893456134	38916
2	12380	8.762101798028	39057
2	12398	8.773733456134	39198
2	12409	8.775941798028	39339
2	12427	8.787573456134	39480
2	12438	8.789781798028	39621
2	12492	8.801413456134	39762
2	12503	8.803621798028	39903
2	12521	8.815253456134	40044
2	12532	8.817461798028	40185
2	12550	8.829093456134	40326
2	12572	8.842933456134	40467
2	12583	8.845141798028	40608
2	12630	8.856773456134	40749
2	12641	8.858981798028	40890
2	12659	8.870613456134	41031
2	12670	8.872821798028	41172
2	12688	8.884453456134	41313
2	12699	8.886661798028	41454
2	12717	8.898293456134	41595
2	12764	8.900501798028	41736
2	12782	8.912133456134	41877
2	12793	8.914341798028	42018
2	12811	8.925973456134	42159
2	12822	8.928181798028	42300
2	12840	8.939813456134	42441
2	12851	8.942021798028	42582
2	12896	8.953653456134	42723
2	12907	8.955861798028	42864
2	12928	8.969701798028	43005
2	12938	8.981333456134	43146
2	12949	8.983541798028	43287
2	12967	8.995173456134	43428
2	12978	8.997381798028	43569
2	13035	9.011221798028	43710
2	13045	9.022853456134	43851
2	13056	9.025061798028	43992
2	13074	9.036693456134	44133
2	13085	9.038901798028	44274
2	13130	9.050533456134	44415
2	13141	9.052741798028	44556
2	13159	9.064373456134	44697
2	13170	9.066581798028	44838
2	13188	9.078213456134	44979
2	13199	9.080421798028	45120
2	13217	9.092053456134	45261
2	13228	9.094261798028	45402
2	13285	9.108101798028	45543
2	13295	9.119733456134	45684
2	13306	9.121941798028	45825
2	13324	9.133573456134	45966
2	13335	9.135781798028	46107
2	13353	9.147413456134	46248
2	13364	9.149621798028	46389
2	13409	9.161253456134	46530
2	13420	9.163461798028	46671
2	13438	9.175093456134	46812
2	13449	9.177301798028	46953
2	13467	9.188933456134	47094
2	13478	9.191141798028	47235
2	13535	9.202773456134	47376
2	13557	9.216613456134	47517
2	13576	9.230453456134	47658
2	13595	9.244293456134	47799
2	13641	9.258133456134	47940
2	13660	9.271973456134	48081
2	13679	9.285813456134	48222
2	13698	9.299653456134	48363
2	13753	9.313493456134	48504
2	13772	9.327333456134	48645
2	13791	9.341173456134	48786
2	13837	9.355013456134	48927
2	13856	9.368853456134	49068
2	13875	9.382693456134	49209
2	14669	10.083626728067	49350
2	14687	10.097466728067	49491
2	14741	10.111306728067	49632
2	14759	10.125146728067	49773
2	14777	10.138986728067	49914
2	14822	10.152826728067	50055
2	14840	10.166666728067	50196
2	14858	10.180506728067	50337
2	14876	10.194346728067	50478
2	14930	10.208186728067	50619
2	14948	10.222026728067	50760
2	14966	10.235866728067	50901
2	14984	10.249706728067	51042
2	15024	10.263546728067	51183
2	15042	10.277386728067	51324
2	15060	10.291226728067	51465
2	15116	10.305066728067	51606
2	15141	10.318906728067	51747
2	15168	10.332746728067	51888
2	15186	10.346586728067	52029
2	15231	10.360426728067	52170
2	15252	10.388106728067	52311
2	15306	10.401946728067	52452
2	15324	10.415786728067	52593
2	15342	10.429626728067	52734
2	15360	10.443466728067	52875
2	15424	10.471146728067	53016
2	15527	10.484986728067	53157
2	15537	10.498426728067	53298
2	15548	10.498826728067	53439
2	15602	10.512266728067	53580
2	15613	10.512666728067	53721
2	15631	10.526106728067	53862
2	15642	10.526506728067	54003
2	15660	10.539946728067	54144
2	15671	10.540346728067	54285
2	15711	10.553786728067	54426
2	15722	10.554186728067	54567
2	15740	10.567626728067	54708
2	15751	10.568026728067	54849
2	15769	10.581466728067	54990
2	15780	10.581866728067	55131
2	15798	10.595306728067	55272
2	15809	10.595706728067	55413
2	15865	10.609146728067	55554
2	15876	10.609546728067	55695
2	15894	10.622986728067	55836
2	15905	10.623386728067	55977
2	15923	10.636826728067	56118
2	15934	10.637226728067	56259
2	15979	10.650666728067	56400
2	15990	10.651066728067	56541
2	16008	10.664506728067	56682
2	16019	10.664906728067	56823
2	16037	10.678346728067	56964
2	16048	10.678746728067	57105
2	16066	10.692186728067	57246
2	16124	10.706026728067	57387
2	16135	10.706426728067	57528
2	16156	10.720266728067	57669
2	16166	10.733706728067	57810
2	16188	10.747546728067	57951
2	16199	10.747946728067	58092
2	16253	10.761386728067	58233
2	16284	10.775226728067	58374
2	16303	10.789066728067	58515
2	16358	10.802906728067	58656
2	16377	10.816746728067	58797
2	16396	10.830586728067	58938
2	16415	10.844426728067	59079
2	16463	10.858266728067	59220
2	16494	10.872106728067	59361
2	16513	10.885946728067	59502
2	16532	10.899786728067	59643
2	16587	10.913626728067	59784
2	16606	10.927466728067	59925
2	16938	11.062266728067	60066
2	16957	11.076106728067	60207
2	16976	11.089946728067	60348
2	17031	11.103786728067	60489
2	17048	11.131466728067	60630
2	17062	11.145306728067	60771
2	17110	11.159146728067	60912
2	17141	11.172986728067	61053
2	17160	11.186826728067	61194
2	17215	11.200666728067	61335
2	17234	11.214506728067	61476
2	17253	11.228346728067	61617
2	17272	11.242186728067	61758
2	17318	11.256026728067	61899
2	17337	11.269866728067	62040
2	17356	11.283706728067	62181
2	17375	11.297546728067	62322
2	17459	11.316075069961	62463
2	17477	11.329915069961	62604
2	17495	11.343755069961	62745
2	17540	11.357595069961	62886
2	17558	11.371435069961	63027
2	17576	11.385275069961	63168
2	17594	11.399115069961	63309
2	17650	11.412955069961	63450
2	17689	11.426795069961	63591
2	17707	11.440635069961	63732
2	18324	12.148426728067	63873
2	18365	12.162266728067	64014
2	18384	12.176106728067	64155
2	18403	12.189946728067	64296
2	18461	12.217626728067	64437
2	18480	12.231466728067	64578
2	18531	12.259146728067	64719
2	18562	12.272986728067	64860
2	18581	12.286826728067	65001
2	18639	12.314506728067	65142
2	18957	12.698426728067	65283
2	19015	12.726106728067	65424
2	19034	12.739946728067	65565
2	19080	12.753786728067	65706
2	19440	13.233626728067	65847
3	4865	5.533626728067	141
3	4913	5.561306728067	282
3	4931	5.575146728067	423
3	4949	5.588986728067	564
3	5003	5.602826728067	705
3	5021	5.616666728067	846
3	5039	5.630506728067	987
3	5057	5.644346728067	1128
3	5104	5.658186728067	1269
3	5137	5.672026728067	1410
3	5155	5.685866728067	1551
3	5173	5.699706728067	1692
3	5227	5.713546728067	1833
3	5245	5.727386728067	1974
3	5293	5.755066728067	2115
3	5311	5.768906728067	2256
3	5329	5.782746728067	2397
3	5342	5.796586728067	2538
3	5396	5.810426728067	2679
3	5414	5.824266728067	2820
3	5432	5.838106728067	2961
3	5477	5.851946728067	3102
3	5495	5.865786728067	3243
3	5513	5.879626728067	3384
3	5531	5.893466728067	3525
3	5585	5.907306728067	3666
3	5598	5.921146728067	3807
3	5616	5.934986728067	3948
3	5634	5.948826728067	4089
3	5679	5.962666728067	4230
3	5692	5.976506728067	4371
3	5710	5.990346728067	4512
3	5764	6.004186728067	4653
3	5782	6.018026728067	4794
3	5800	6.031866728067	4935
3	5818	6.045706728067	5076
3	5869	6.059546728067	5217
3	5920	6.073386728067	5358
3	5977	6.101066728067	5499
3	5995	6.114906728067	5640
3	6013	6.128746728067	5781
3	6031	6.142586728067	5922
3	6076	6.156426728067	6063
3	6094	6.170266728067	6204
3	6112	6.184106728067	6345
3	6130	6.197946728067	6486
3	6186	6.211786728067	6627
3	6519	6.225626728067	6768
3	6529	6.234133456134	6909
3	6548	6.239466728067	7050
3	6558	6.247973456134	7191
3	6604	6.253306728067	7332
3	6614	6.261813456134	7473
3	6633	6.267146728067	7614
3	6643	6.275653456134	7755
3	6662	6.280986728067	7896
3	6672	6.289493456134	8037
3	6691	6.294826728067	8178
3	6740	6.308666728067	8319
3	6750	6.317173456134	8460
3	6769	6.322506728067	8601
3	6779	6.331013456134	8742
3	6798	6.336346728067	8883
3	6808	6.344853456134	9024
3	6854	6.350186728067	9165
3	6864	6.358693456134	9306
3	6883	6.364026728067	9447
3	6893	6.372533456134	9588
3	6912	6.377866728067	9729
3	6922	6.386373456134	9870
3	6941	6.391706728067	10011
3	6987	6.400213456134	10152
3	7006	6.405546728067	10293
3	7016	6.414053456134	10434
3	7035	6.419386728067	10575
3	7048	6.433226728067	10716
3	7058	6.441733456134	10857
3	7077	6.447066728067	10998
3	7114	6.455573456134	11139
3	7128	6.460906728067	11280
3	7138	6.469413456134	11421
3	7157	6.474746728067	11562
3	7167	6.483253456134	11703
3	7186	6.488586728067	11844
3	7196	6.497093456134	11985
3	7251	6.502426728067	12126
3	7261	6.510933456134	12267
3	7283	6.524773456134	12408
3	7302	6.530106728067	12549
3	7312	6.538613456134	12690
3	7331	6.543946728067	12831
3	7368	6.552453456134	12972
3	7382	6.557786728067	13113
3	7392	6.566293456134	13254
3	7411	6.571626728067	13395
3	7421	6.580133456134	13536
3	7440	6.585466728067	13677
3	7450	6.593973456134	13818
3	7469	6.599306728067	13959
3	7519	6.607813456134	14100
3	7530	6.613146728067	14241
3	7560	6.621653456134	14382
3	7579	6.626986728067	14523
3	7589	6.635493456134	14664
3	7608	6.640826728067	14805
3	7618	6.649333456134	14946
3	7664	6.654666728067	15087
3	7674	6.663173456134	15228
3	7693	6.668506728067	15369
3	7703	6.677013456134	15510
3	7722	6.682346728067	15651
3	7732	6.690853456134	15792
3	7746	6.696186728067	15933
3	7792	6.704693456134	16074
3	7811	6.710026728067	16215
3	7821	6.718533456134	16356
3	7840	6.723866728067	16497
3	7850	6.732373456134	16638
3	7869	6.737706728067	16779
3	7879	6.746213456134	16920
3	7930	6.760053456134	17061
3	7947	6.773893456134	17202
3	7966	6.779226728067	17343
3	7976	6.787733456134	17484
3	8034	6.801573456134	17625
3	8053	6.806906728067	17766
3	8063	6.815413456134	17907
3	8082	6.820746728067	18048
3	8092	6.829253456134	18189
3	8111	6.834586728067	18330
3	8121	6.843093456134	18471
3	8140	6.848426728067	18612
3	8177	6.856933456134	18753
3	8196	6.862266728067	18894
3	8206	6.870773456134	19035
3	8225	6.876106728067	19176
3	8235	6.884613456134	19317
3	8254	6.889946728067	19458
3	8264	6.898453456134	19599
3	8319	6.903786728067	19740
3	8329	6.912293456134	19881
3	8354	6.926133456134	20022
3	8385	6.939973456134	20163
3	8434	6.967653456134	20304
3	8453	6.981493456134	20445
3	8472	6.995333456134	20586
3	8527	7.009173456134	20727
3	8546	7.023013456134	20868
3	8565	7.036853456134	21009
3	8613	7.050693456134	21150
3	8632	7.064533456134	21291
3	8654	7.092213456134	21432
3	8709	7.106053456134	21573
3	8728	7.119893456134	21714
3	8747	7.133733456134	21855
3	8766	7.147573456134	21996
3	8815	7.175253456134	22137
3	8873	7.202933456134	22278
3	8887	7.216773456134	22419
3	8906	7.230613456134	22560
3	8925	7.244453456134	22701
3	8971	7.258293456134	22842
3	8990	7.272133456134	22983
3	9009	7.285973456134	23124
3	9028	7.299813456134	23265
3	9083	7.313653456134	23406
3	9102	7.327493456134	23547
3	9121	7.341333456134	23688
3	9167	7.355173456134	23829
3	9186	7.369013456134	23970
3	9205	7.382853456134	24111
3	9224	7.396693456134	24252
3	9279	7.410533456134	24393
3	9298	7.424373456134	24534
3	9317	7.438213456134	24675
3	9363	7.452053456134	24816
3	9382	7.465893456134	24957
3	9401	7.479733456134	25098
3	9420	7.493573456134	25239
3	9475	7.507413456134	25380
3	9497	7.535093456134	25521
3	9516	7.548933456134	25662
3	9562	7.562773456134	25803
3	9581	7.576613456134	25944
3	9600	7.590453456134	26085
3	9655	7.604293456134	26226
3	9674	7.618133456134	26367
3	9693	7.631973456134	26508
3	9712	7.645813456134	26649
3	9753	7.659653456134	26790
3	9772	7.673493456134	26931
3	9791	7.687333456134	27072
3	9841	7.701173456134	27213
3	9860	7.715013456134	27354
3	9879	7.728853456134	27495
3	9893	7.742693456134	27636
3	9939	7.756533456134	27777
3	9958	7.770373456134	27918
3	9977	7.784213456134	28059
3	9996	7.798053456134	28200
3	10051	7.811893456134	28341
3	10070	7.825733456134	28482
3	10089	7.839573456134	28623
3	10135	7.853413456134	28764
3	10152	7.881093456134	28905
3	10171	7.894933456134	29046
3	10226	7.908773456134	29187
3	10245	7.922613456134	29328
3	10264	7.936453456134	29469
3	10310	7.950293456134	29610
3	10329	7.964133456134	29751
3	10348	7.977973456134	29892
3	10367	7.991813456134	30033
3	10422	8.005653456134	30174
3	10441	8.019493456134	30315
3	10460	8.033333456134	30456
3	10479	8.047173456134	30597
3	10525	8.061013456134	30738
3	10544	8.074853456134	30879
3	10563	8.088693456134	31020
3	10618	8.102533456134	31161
3	10640	8.130213456134	31302
3	10659	8.144053456134	31443
3	10709	8.157893456134	31584
3	10752	8.171733456134	31725
3	10771	8.185573456134	31866
3	10790	8.199413456134	32007
3	10845	8.213253456134	32148
3	10864	8.227093456134	32289
3	10883	8.240933456134	32430
3	11315	8.429941798028	32571
3	11337	8.443781798028	32712
3	11545	8.457621798028	32853
3	11555	8.469253456134	32994
3	11566	8.471461798028	33135
3	11584	8.483093456134	33276
3	11595	8.485301798028	33417
3	11613	8.496933456134	33558
3	11624	8.499141798028	33699
3	11678	8.510773456134	33840
3	11689	8.512981798028	33981
3	11707	8.524613456134	34122
3	11718	8.526821798028	34263
3	11736	8.538453456134	34404
3	11747	8.540661798028	34545
3	11792	8.552293456134	34686
3	11803	8.554501798028	34827
3	11821	8.566133456134	34968
3	11832	8.568341798028	35109
3	11850	8.579973456134	35250
3	11861	8.582181798028	35391
3	11879	8.593813456134	35532
3	11890	8.596021798028	35673
3	11944	8.607653456134	35814
3	11955	8.609861798028	35955
3	11973	8.621493456134	36096
3	11984	8.623701798028	36237
3	12002	8.635333456134	36378
3	12013	8.637541798028	36519
3	12031	8.649173456134	36660
3	12069	8.651381798028	36801
3	12087	8.663013456134	36942
3	12098	8.665221798028	37083
3	12116	8.676853456134	37224
3	12127	8.679061798028	37365
3	12145	8.690693456134	37506
3	12156	8.692901798028	37647
3	12214	8.704533456134	37788
3	12225	8.706741798028	37929
3	12255	8.718373456134	38070
3	12266	8.720581798028	38211
3	12284	8.732213456134	38352
3	12295	8.734421798028	38493
3	12313	8.746053456134	38634
3	12324	8.748261798028	38775
3	12369	8.759893456134	38916
3	12380	8.762101798028	39057
3	12398	8.773733456134	39198
3	12409	8.775941798028	39339
3	12427	8.787573456134	39480
3	12438	8.789781798028	39621
3	12492	8.801413456134	39762
3	12503	8.803621798028	39903
3	12521	8.815253456134	40044
3	12532	8.817461798028	40185
3	12550	8.829093456134	40326
3	12572	8.842933456134	40467
3	12583	8.845141798028	40608
3	12630	8.856773456134	40749
3	12641	8.858981798028	40890
3	12659	8.870613456134	41031
3	12670	8.872821798028	41172
3	12688	8.884453456134	41313
3	12699	8.886661798028	41454
3	12717	8.898293456134	41595
3	12764	8.900501798028	41736
3	12782	8.912133456134	41877
3	12793	8.914341798028	42018
3	12811	8.925973456134	42159
3	12822	8.928181798028	42300
3	12840	8.939813456134	42441
3	12851	8.942021798028	42582
3	12896	8.953653456134	42723
3	12907	8.955861798028	42864
3	12928	8.969701798028	43005
3	12938	8.981333456134	43146
3	12949	8.983541798028	43287
3	12967	8.995173456134	43428
3	12978	8.997381798028	43569
3	13035	9.011221798028	43710
3	13045	9.022853456134	43851
3	13056	9.025061798028	43992
3	13074	9.036693456134	44133
3	13085	9.038901798028	44274
3	13130	9.050533456134	44415
3	13141	9.052741798028	44556
3	13159	9.064373456134	44697
3	13170	9.066581798028	44838
3	13188	9.078213456134	44979
3	13199	9.080421798028	45120
3	13217	9.092053456134	45261
3	13228	9.094261798028	45402
3	13285	9.108101798028	45543
3	13295	9.119733456134	45684
3	13306	9.121941798028	45825
3	13324	9.133573456134	45966
3	13335	9.135781798028	46107
3	13353	9.147413456134	46248
3	13364	9.149621798028	46389
3	13409	9.161253456134	46530
3	13420	9.163461798028	46671
3	13438	9.175093456134	46812
3	13449	9.177301798028	46953
3	13467	9.188933456134	47094
3	13478	9.191141798028	47235
3	13535	9.202773456134	47376
3	13557	9.216613456134	47517
3	13576	9.230453456134	47658
3	13595	9.244293456134	47799
3	13641	9.258133456134	47940
3	13660	9.271973456134	48081
3	13679	9.285813456134	48222
3	13698	9.299653456134	48363
3	13753	9.313493456134	48504
3	13772	9.327333456134	48645
3	13791	9.341173456134	48786
3	13837	9.355013456134	48927
3	13856	9.368853456134	49068
3	13875	9.382693456134	49209
3	14669	10.083626728067	49350
3	14687	10.097466728067	49491
3	14741	10.111306728067	49632
3	14759	10.125146728067	49773
3	14777	10.138986728067	49914
3	14822	10.152826728067	50055
3	14840	10.166666728067	50196
3	14858	10.180506728067	50337
3	14876	10.194346728067	50478
3	14930	10.208186728067	50619
3	14948	10.222026728067	50760
3	14966	10.235866728067	50901
3	14984	10.249706728067	51042
3	15024	10.263546728067	51183
3	15042	10.277386728067	51324
3	15060	10.291226728067	51465
3	15116	10.305066728067	51606
3	15141	10.318906728067	51747
3	15168	10.332746728067	51888
3	15186	10.346586728067	52029
3	15231	10.360426728067	52170
3	15252	10.388106728067	52311
3	15306	10.401946728067	52452
3	15324	10.415786728067	52593
3	15342	10.429626728067	52734
3	15360	10.443466728067	52875
3	15424	10.471146728067	53016
3	15527	10.484986728067	53157
3	15537	10.498426728067	53298
3	15548	10.498826728067	53439
3	15602	10.512266728067	53580
3	15613	10.512666728067	53721
3	15631	10.526106728067	53862
3	15642	10.526506728067	54003
3	15660	10.539946728067	54144
3	15671	10.540346728067	54285
3	15711	10.553786728067	54426
3	15722	10.554186728067	54567
3	15740	10.567626728067	54708
3	15751	10.568026728067	54849
3	15769	10.581466728067	54990
3	15780	10.581866728067	55131
3	15798	10.595306728067	55272
3	15809	10.595706728067	55413
3	15865	10.609146728067	55554
3	15876	10.609546728067	55695
3	15894	10.622986728067	55836
3	15905	10.623386728067	55977
3	15923	10.636826728067	56118
3	15934	10.637226728067	56259
3	15979	10.650666728067	56400
3	15990	10.651066728067	56541
3	16008	10.664506728067	56682
3	16019	10.664906728067	56823
3	16037	10.678346728067	56964
3	16048	10.678746728067	57105
3	16066	10.692186728067	57246
3	16124	10.706026728067	57387
3	16135	10.706426728067	57528
3	16156	10.720266728067	57669
3	16166	10.733706728067	57810
3	16188	10.747546728067	57951
3	16199	10.747946728067	58092
3	16253	10.761386728067	58233
3	16284	10.775226728067	58374
3	16303	10.789066728067	58515
3	16358	10.802906728067	58656
3	16377	10.816746728067	58797
3	16396	10.830586728067	58938
3	16415	10.844426728067	59079
3	16463	10.858266728067	59220
3	16494	10.872106728067	59361
3	16513	10.885946728067	59502
3	16532	10.899786728067	59643
3	16587	10.913626728067	59784
3	16606	10.927466728067	59925
3	16938	11.062266728067	60066
3	16957	11.076106728067	60207
3	16976	11.089946728067	60348
3	17031	11.103786728067	60489
3	17048	11.131466728067	60630
3	17062	11.145306728067	60771
3	17110	11.159146728067	60912
3	17141	11.172986728067	61053
3	17160	11.186826728067	61194
3	17215	11.200666728067	61335
3	17234	11.214506728067	61476
3	17253	11.228346728067	61617
3	17272	11.242186728067	61758
3	17318	11.256026728067	61899
3	17337	11.269866728067	62040
3	17356	11.283706728067	62181
3	17375	11.297546728067	62322
3	17459	11.316075069961	62463
3	17477	11.329915069961	62604
3	17495	11.343755069961	62745
3	17540	11.357595069961	62886
3	17558	11.371435069961	63027
3	17576	11.385275069961	63168
3	17594	11.399115069961	63309
3	17650	11.412955069961	63450
3	17689	11.426795069961	63591
3	17707	11.440635069961	63732
3	18324	12.148426728067	63873
3	18365	12.162266728067	64014
3	18384	12.176106728067	64155
3	18403	12.189946728067	64296
3	18461	12.217626728067	64437
3	18480	12.231466728067	64578
3	18531	12.259146728067	64719
3	18562	12.272986728067	64860
3	18581	12.286826728067	65001
3	18639	12.314506728067	65142
3	18957	12.698426728067	65283
3	19015	12.726106728067	65424
3	19034	12.739946728067	65565
3	19080	12.753786728067	65706
3	19440	13.233626728067	65847

