version 2
run A_08_10-0-20191011-21:21:18-5740
attr configname A_08_10
attr datetime 20191011-21:21:18
attr experiment A_08_10
attr inifile SimV3.ini
attr iterationvars ""
attr iterationvarsf ""
attr measurement ""
attr network NetworkTormV2
attr processid 5740
attr repetition 0
attr replication #0
attr resultdir results
attr runnumber 0
attr seedset 0
param **.mobility.traceFile "\"paths/A_08_10.movements\""
param **.numNodes 11
param **.application.dataGenerationInterval 1s
param **.application.dataSizeInBytes 10
param **.application.ttl 999999s
param **application.nodesThatGen false
param **application.nodesGenMsg "\"\""
param **application.startMultipleMsg false
param **application.numMultipleMsg 100
param **application.hopsListSize 50
param **.application.endGeneratingMsg 99s
param **.routingLayer "\"RoutingLqeGw\""
param **.routing.maximumCacheSize 5000byte
param **.routing.maximumHopCount 25
param **.routing.useTTL false
param **.routing.waitBFsend 0.5
param **.routing.max_age 999999s
param **.routing.gateway_list "\"\""
param **.routing.actual_gateway "\"\""
param **.routing.gwCheckPeriod 5s
param **.wirelessIfc.wirelessRange 40m
param **.numNodes 2
param **.application.usedRNG 1
param **.application.dataGenerationInterval 1s
param **.application.dataSizeInBytes 10
param **.application.ttl 999999s
param **application.destinationAddr "\"Wf:00:00:00:00:02\""
param **application.destinationBTAddr "\"Bt:00:00:00:00:02\""
param **application.nodesThatGen true
param **application.nodesGenMsg "\"0\""
param **application.startMultipleMsg true
param **application.numMultipleMsg 100
param **application.hopsListSize 50
param **.application.endGeneratingMsg 999999s
param **.routingLayer "\"RoutingLqeGw\""
param **.routing.maximumCacheSize 5000byte
param **.routing.maximumHopCount 25
param **.routing.useTTL false
param **.routing.waitBFsend 0.5
param **.routing.max_age 999999s
param **.routing.gateway_list "\"\""
param **.routing.actual_gateway "\"\""
param **.routing.gwCheckPeriod 5s
param **.neighboring.antiEntropyInterval 500ms
param **.neighboring.maximumRandomBackoffDuration 1s
param **.neighboring.delayPerDataMsg 0.1
param **neighboring.usedRNG 2
param **.neighboring.GWAddr "\"Wf:00:00:00:00:02\""
param **.neighboring.sendWifiFirst true
param **.neighboring.maxLengthGraph 20
param **.neighboring.max_age 999999s
param **.neighboring.max_absent_time 1s
param **.wirelessIfc.wirelessRange 40m
param **.wirelessIfc.neighbourScanInterval 50ms
param **.wirelessIfc.bandwidthBitRate 100000bps
param **.wirelessIfc.wirelessHeaderSize 32byte
param **.wirelessIfc.minSSI -90
param **.wirelessIfc.limitQueueTime 400ms
param **.wirelessIfc.my_limit_rate 0bps
param **.bluetoothIfc.wirelessRange 40m
param **.bluetoothIfc.neighbourScanInterval 100ms
param **.bluetoothIfc.bandwidthBitRate 100000bps
param **.bluetoothIfc.wirelessHeaderSize 16byte
param **.bluetoothIfc.minSSI -90
param **.mobilityType "\"BonnMotionMobility\""
param **.mobility.traceFile "\"paths/Moves2.movements\""
param **.mobility.is3D false
param **.mobility.nodeId -1

vector 0 NetworkTormV2 neighbourhoodSize:vector ETV
attr source neighbourhoodSize
vector 1 NetworkTormV2 deliveryRatio:vector ETV
attr source sum(totalDataBytesReceived)/sum(totalDataBytesReceivableByAllNodes)
vector 2 NetworkTormV2 dataBytesReceivedSum:vector ETV
attr source sum(dataBytesReceived)
vector 3 NetworkTormV2 totalBytesReceivedSum:vector ETV
attr source sum(totalBytesReceived)
0	34	0.05	3
0	35	0.05	5
0	36	0.05	3
0	37	0.05	5
0	38	0.05	8
0	39	0.05	5
0	40	0.05	3
0	41	0.05	5
0	42	0.05	3
0	43	0.05	1
0	44	0.05	1
0	134	0.1	3
0	136	0.1	5
0	138	0.1	3
0	140	0.1	5
0	142	0.1	8
0	144	0.1	5
0	146	0.1	3
0	148	0.1	5
0	150	0.1	3
0	152	0.1	1
0	154	0.1	1
0	155	0.1	3
0	156	0.1	5
0	157	0.1	3
0	158	0.1	5
0	159	0.1	8
0	160	0.1	5
0	161	0.1	3
0	162	0.1	5
0	163	0.1	3
0	164	0.1	1
0	165	0.1	1
0	287	0.15	3
0	288	0.15	5
0	289	0.15	3
0	290	0.15	5
0	291	0.15	8
0	292	0.15	5
0	293	0.15	3
0	294	0.15	5
0	295	0.15	3
0	296	0.15	1
0	297	0.15	1
0	386	0.2	3
0	387	0.2	5
0	388	0.2	3
0	389	0.2	5
0	390	0.2	8
0	391	0.2	5
0	392	0.2	3
0	393	0.2	5
0	394	0.2	3
0	395	0.2	1
0	396	0.2	1
0	397	0.2	3
0	398	0.2	5
0	399	0.2	3
0	400	0.2	5
0	401	0.2	8
0	402	0.2	5
0	403	0.2	3
0	404	0.2	5
0	405	0.2	3
0	406	0.2	1
0	407	0.2	1
0	518	0.25	3
0	519	0.25	5
0	520	0.25	3
0	521	0.25	5
0	522	0.25	8
0	523	0.25	5
0	524	0.25	3
0	525	0.25	5
0	526	0.25	3
0	527	0.25	1
0	528	0.25	1
0	617	0.3	3
0	618	0.3	5
0	619	0.3	3
0	620	0.3	5
0	621	0.3	8
0	622	0.3	5
0	623	0.3	3
0	624	0.3	5
0	625	0.3	3
0	626	0.3	1
0	627	0.3	1
0	628	0.3	3
0	629	0.3	5
0	630	0.3	3
0	631	0.3	5
0	632	0.3	8
0	633	0.3	5
0	634	0.3	3
0	635	0.3	5
0	636	0.3	3
0	637	0.3	1
0	638	0.3	1
0	749	0.35	3
0	750	0.35	5
0	751	0.35	3
0	752	0.35	5
0	753	0.35	8
0	754	0.35	5
0	755	0.35	3
0	756	0.35	5
0	757	0.35	3
0	758	0.35	1
0	759	0.35	1
0	848	0.4	3
0	849	0.4	5
0	850	0.4	3
0	851	0.4	5
0	852	0.4	8
0	853	0.4	5
0	854	0.4	3
0	855	0.4	5
0	856	0.4	3
0	857	0.4	1
0	858	0.4	1
0	859	0.4	3
0	860	0.4	5
0	861	0.4	3
0	862	0.4	5
0	863	0.4	8
0	864	0.4	5
0	865	0.4	3
0	866	0.4	5
0	867	0.4	3
0	868	0.4	1
0	869	0.4	1
0	980	0.45	3
0	981	0.45	5
0	982	0.45	3
0	983	0.45	5
0	984	0.45	8
0	985	0.45	5
0	986	0.45	3
0	987	0.45	5
0	988	0.45	3
0	989	0.45	1
0	990	0.45	1
0	1079	0.5	3
0	1080	0.5	5
0	1081	0.5	3
0	1082	0.5	5
0	1083	0.5	8
0	1084	0.5	5
0	1085	0.5	3
0	1086	0.5	5
0	1087	0.5	3
0	1088	0.5	1
0	1089	0.5	1
0	1090	0.5	3
0	1091	0.5	5
0	1092	0.5	3
0	1093	0.5	5
0	1094	0.5	8
0	1095	0.5	5
0	1096	0.5	3
0	1097	0.5	5
0	1098	0.5	3
0	1099	0.5	1
0	1100	0.5	1
0	1211	0.55	3
0	1212	0.55	5
0	1213	0.55	3
0	1214	0.55	5
0	1215	0.55	8
0	1216	0.55	5
0	1217	0.55	3
0	1218	0.55	5
0	1219	0.55	3
0	1220	0.55	1
0	1221	0.55	1
0	1310	0.6	3
0	1311	0.6	5
0	1312	0.6	3
0	1313	0.6	5
0	1314	0.6	8
0	1315	0.6	5
0	1316	0.6	3
0	1317	0.6	5
0	1318	0.6	3
0	1319	0.6	1
0	1320	0.6	1
0	1321	0.6	3
0	1322	0.6	5
0	1323	0.6	3
0	1324	0.6	5
0	1325	0.6	8
0	1326	0.6	5
0	1327	0.6	3
0	1328	0.6	5
0	1329	0.6	3
0	1330	0.6	1
0	1331	0.6	1
0	1442	0.65	3
0	1443	0.65	5
0	1444	0.65	3
0	1445	0.65	5
0	1446	0.65	8
0	1447	0.65	5
0	1448	0.65	3
0	1449	0.65	5
0	1450	0.65	3
0	1451	0.65	1
0	1452	0.65	1
0	1541	0.7	3
0	1542	0.7	5
0	1543	0.7	3
0	1544	0.7	5
0	1545	0.7	8
0	1546	0.7	5
0	1547	0.7	3
0	1548	0.7	5
0	1549	0.7	3
0	1550	0.7	1
0	1551	0.7	1
0	1552	0.7	3
0	1553	0.7	5
0	1554	0.7	3
0	1555	0.7	5
0	1556	0.7	8
0	1557	0.7	5
0	1558	0.7	3
0	1559	0.7	5
0	1560	0.7	3
0	1561	0.7	1
0	1562	0.7	1
0	1673	0.75	3
0	1674	0.75	5
0	1675	0.75	3
0	1676	0.75	5
0	1677	0.75	8
0	1678	0.75	5
0	1679	0.75	3
0	1680	0.75	5
0	1681	0.75	3
0	1682	0.75	1
0	1683	0.75	1
0	1772	0.8	3
0	1773	0.8	5
0	1774	0.8	3
0	1775	0.8	5
0	1776	0.8	8
0	1777	0.8	5
0	1778	0.8	3
0	1779	0.8	5
0	1780	0.8	3
0	1781	0.8	1
0	1782	0.8	1
0	1783	0.8	3
0	1784	0.8	5
0	1785	0.8	3
0	1786	0.8	5
0	1787	0.8	8
0	1788	0.8	5
0	1789	0.8	3
0	1790	0.8	5
0	1791	0.8	3
0	1792	0.8	1
0	1793	0.8	1
0	1904	0.85	3
0	1905	0.85	5
0	1906	0.85	3
0	1907	0.85	5
0	1908	0.85	8
0	1909	0.85	5
0	1910	0.85	3
0	1911	0.85	5
0	1912	0.85	3
0	1913	0.85	1
0	1914	0.85	1
0	2003	0.9	3
0	2004	0.9	5
0	2005	0.9	3
0	2006	0.9	5
0	2007	0.9	8
0	2008	0.9	5
0	2009	0.9	3
0	2010	0.9	5
0	2011	0.9	3
0	2012	0.9	1
0	2013	0.9	1
0	2014	0.9	3
0	2015	0.9	5
0	2016	0.9	3
0	2017	0.9	5
0	2018	0.9	8
0	2019	0.9	5
0	2020	0.9	3
0	2021	0.9	5
0	2022	0.9	3
0	2023	0.9	1
0	2024	0.9	1
0	2135	0.95	3
0	2136	0.95	5
0	2137	0.95	3
0	2138	0.95	5
0	2139	0.95	8
0	2140	0.95	5
0	2141	0.95	3
0	2142	0.95	5
0	2143	0.95	3
0	2144	0.95	1
0	2145	0.95	1
0	2234	1	3
0	2235	1	5
0	2236	1	3
0	2237	1	5
0	2238	1	8
0	2239	1	5
0	2240	1	3
0	2241	1	5
0	2242	1	3
0	2243	1	1
0	2244	1	1
0	2245	1	3
0	2246	1	5
0	2247	1	3
0	2248	1	5
0	2249	1	8
0	2250	1	5
0	2251	1	3
0	2252	1	5
0	2253	1	3
0	2254	1	1
0	2255	1	1
0	2366	1.05	3
0	2367	1.05	5
0	2368	1.05	3
0	2369	1.05	5
0	2370	1.05	8
0	2371	1.05	5
0	2372	1.05	3
0	2373	1.05	5
0	2374	1.05	3
0	2375	1.05	1
0	2376	1.05	1
0	2476	1.1	3
0	2477	1.1	5
0	2478	1.1	3
0	2479	1.1	5
0	2480	1.1	8
0	2481	1.1	5
0	2482	1.1	3
0	2483	1.1	5
0	2484	1.1	3
0	2485	1.1	1
0	2486	1.1	1
0	2487	1.1	3
0	2488	1.1	5
0	2489	1.1	3
0	2490	1.1	5
0	2491	1.1	8
0	2492	1.1	5
0	2493	1.1	3
0	2494	1.1	5
0	2495	1.1	3
0	2496	1.1	1
0	2497	1.1	1
0	3069	1.15	3
0	3070	1.15	5
0	3071	1.15	3
0	3072	1.15	5
0	3073	1.15	8
0	3074	1.15	5
0	3075	1.15	3
0	3076	1.15	5
0	3077	1.15	3
0	3078	1.15	1
0	3079	1.15	1
0	3486	1.2	3
0	3487	1.2	5
0	3488	1.2	3
0	3489	1.2	5
0	3490	1.2	8
0	3491	1.2	5
0	3492	1.2	3
0	3493	1.2	5
0	3494	1.2	3
0	3495	1.2	1
0	3496	1.2	1
0	3497	1.2	3
0	3498	1.2	5
0	3499	1.2	3
0	3500	1.2	5
0	3501	1.2	8
0	3502	1.2	5
0	3503	1.2	3
0	3504	1.2	5
0	3505	1.2	3
0	3506	1.2	1
0	3507	1.2	1
0	3702	1.25	3
0	3703	1.25	5
0	3704	1.25	3
0	3705	1.25	5
0	3706	1.25	8
0	3707	1.25	5
0	3708	1.25	3
0	3709	1.25	5
0	3710	1.25	3
0	3711	1.25	1
0	3712	1.25	1
0	3819	1.3	3
0	3820	1.3	5
0	3821	1.3	3
0	3822	1.3	5
0	3823	1.3	8
0	3824	1.3	5
0	3825	1.3	3
0	3826	1.3	5
0	3827	1.3	3
0	3828	1.3	1
0	3829	1.3	1
0	3830	1.3	3
0	3831	1.3	5
0	3832	1.3	3
0	3833	1.3	5
0	3834	1.3	8
0	3835	1.3	5
0	3836	1.3	3
0	3837	1.3	5
0	3838	1.3	3
0	3839	1.3	1
0	3840	1.3	1
0	3951	1.35	3
0	3952	1.35	5
0	3953	1.35	3
0	3954	1.35	5
0	3955	1.35	8
0	3956	1.35	5
0	3957	1.35	3
0	3958	1.35	5
0	3959	1.35	3
0	3960	1.35	1
0	3961	1.35	1
0	4050	1.4	3
0	4051	1.4	5
0	4052	1.4	3
0	4053	1.4	5
0	4054	1.4	8
0	4055	1.4	5
0	4056	1.4	3
0	4057	1.4	5
0	4058	1.4	3
0	4059	1.4	1
0	4060	1.4	1
0	4061	1.4	3
0	4062	1.4	5
0	4063	1.4	3
0	4064	1.4	5
0	4065	1.4	8
0	4066	1.4	5
0	4067	1.4	3
0	4068	1.4	5
0	4069	1.4	3
0	4070	1.4	1
0	4071	1.4	1
0	4182	1.45	3
0	4183	1.45	5
0	4184	1.45	3
0	4185	1.45	5
0	4186	1.45	8
0	4187	1.45	5
0	4188	1.45	3
0	4189	1.45	5
0	4190	1.45	3
0	4191	1.45	1
0	4192	1.45	1
0	4281	1.5	3
0	4282	1.5	5
0	4283	1.5	3
0	4284	1.5	5
0	4285	1.5	8
0	4286	1.5	5
0	4287	1.5	3
0	4288	1.5	5
0	4289	1.5	3
0	4290	1.5	1
0	4291	1.5	1
0	4292	1.5	3
0	4293	1.5	5
0	4294	1.5	3
0	4295	1.5	5
0	4296	1.5	8
0	4297	1.5	5
0	4298	1.5	3
0	4299	1.5	5
0	4300	1.5	3
0	4301	1.5	1
0	4302	1.5	1
0	4413	1.55	3
0	4414	1.55	5
0	4415	1.55	3
0	4416	1.55	5
0	4417	1.55	8
0	4418	1.55	5
0	4419	1.55	3
0	4420	1.55	5
0	4421	1.55	3
0	4422	1.55	1
0	4423	1.55	1
0	4512	1.6	3
0	4513	1.6	5
0	4514	1.6	3
0	4515	1.6	5
0	4516	1.6	8
0	4517	1.6	5
0	4518	1.6	3
0	4519	1.6	5
0	4520	1.6	3
0	4521	1.6	1
0	4522	1.6	1
0	4523	1.6	3
0	4524	1.6	5
0	4525	1.6	3
0	4526	1.6	5
0	4527	1.6	8
0	4528	1.6	5
0	4529	1.6	3
0	4530	1.6	5
0	4531	1.6	3
0	4532	1.6	1
0	4533	1.6	1
0	4644	1.65	3
0	4645	1.65	5
0	4646	1.65	3
0	4647	1.65	5
0	4648	1.65	8
0	4649	1.65	5
0	4650	1.65	3
0	4651	1.65	5
0	4652	1.65	3
0	4653	1.65	1
0	4654	1.65	1
0	5125	1.7	3
0	5126	1.7	5
0	5127	1.7	3
0	5128	1.7	5
0	5129	1.7	8
0	5130	1.7	5
0	5131	1.7	3
0	5132	1.7	5
0	5133	1.7	3
0	5134	1.7	1
0	5135	1.7	1
0	5136	1.7	3
0	5137	1.7	5
0	5138	1.7	3
0	5139	1.7	5
0	5140	1.7	8
0	5141	1.7	5
0	5142	1.7	3
0	5143	1.7	5
0	5144	1.7	3
0	5145	1.7	1
0	5146	1.7	1
0	5509	1.75	3
0	5510	1.75	5
0	5511	1.75	3
0	5512	1.75	5
0	5513	1.75	8
0	5514	1.75	5
0	5515	1.75	3
0	5516	1.75	5
0	5517	1.75	3
0	5518	1.75	1
0	5519	1.75	1
0	5704	1.8	3
0	5705	1.8	5
0	5706	1.8	3
0	5707	1.8	5
0	5708	1.8	8
0	5709	1.8	5
0	5710	1.8	3
0	5711	1.8	5
0	5712	1.8	3
0	5713	1.8	1
0	5714	1.8	1
0	5715	1.8	3
0	5716	1.8	5
0	5717	1.8	3
0	5718	1.8	5
0	5719	1.8	8
0	5720	1.8	5
0	5721	1.8	3
0	5722	1.8	5
0	5723	1.8	3
0	5724	1.8	1
0	5725	1.8	1
0	5836	1.85	3
0	5837	1.85	5
0	5838	1.85	3
0	5839	1.85	5
0	5840	1.85	8
0	5841	1.85	5
0	5842	1.85	3
0	5843	1.85	5
0	5844	1.85	3
0	5845	1.85	1
0	5846	1.85	1
0	5958	1.9	3
0	5959	1.9	5
0	5960	1.9	3
0	5961	1.9	5
0	5962	1.9	8
0	5963	1.9	5
0	5964	1.9	3
0	5965	1.9	5
0	5966	1.9	3
0	5967	1.9	1
0	5968	1.9	1
0	5969	1.9	3
0	5970	1.9	5
0	5971	1.9	3
0	5972	1.9	5
0	5973	1.9	8
0	5974	1.9	5
0	5975	1.9	3
0	5976	1.9	5
0	5977	1.9	3
0	5978	1.9	1
0	5979	1.9	1
0	6090	1.95	3
0	6091	1.95	5
0	6092	1.95	3
0	6093	1.95	5
0	6094	1.95	8
0	6095	1.95	5
0	6096	1.95	3
0	6097	1.95	5
0	6098	1.95	3
0	6099	1.95	1
0	6100	1.95	1
0	6189	2	3
0	6190	2	5
0	6191	2	3
0	6192	2	5
0	6193	2	8
0	6194	2	5
0	6195	2	3
0	6196	2	5
0	6197	2	3
0	6198	2	1
0	6199	2	1
0	6200	2	3
0	6201	2	5
0	6202	2	3
0	6203	2	5
0	6204	2	8
0	6205	2	5
0	6206	2	3
0	6207	2	5
0	6208	2	3
0	6209	2	1
0	6210	2	1
0	6321	2.05	3
0	6322	2.05	5
0	6323	2.05	3
0	6324	2.05	5
0	6325	2.05	8
0	6326	2.05	5
0	6327	2.05	3
0	6328	2.05	5
0	6329	2.05	3
0	6330	2.05	1
0	6331	2.05	1
0	6431	2.1	3
0	6432	2.1	5
0	6433	2.1	3
0	6434	2.1	5
0	6435	2.1	8
0	6436	2.1	5
0	6437	2.1	3
0	6438	2.1	5
0	6439	2.1	3
0	6440	2.1	1
0	6441	2.1	1
0	6442	2.1	3
0	6443	2.1	5
0	6444	2.1	3
0	6445	2.1	5
0	6446	2.1	8
0	6447	2.1	5
0	6448	2.1	3
0	6449	2.1	5
0	6450	2.1	3
0	6451	2.1	1
0	6452	2.1	1
0	6574	2.15	3
0	6575	2.15	5
0	6576	2.15	3
0	6577	2.15	5
0	6578	2.15	8
0	6579	2.15	5
0	6580	2.15	3
0	6581	2.15	5
0	6582	2.15	3
0	6583	2.15	1
0	6584	2.15	1
0	6673	2.2	3
0	6674	2.2	5
0	6675	2.2	3
0	6676	2.2	5
0	6677	2.2	8
0	6678	2.2	5
0	6679	2.2	3
0	6680	2.2	5
0	6681	2.2	3
0	6682	2.2	1
0	6683	2.2	1
0	6684	2.2	3
0	6685	2.2	5
0	6686	2.2	3
0	6687	2.2	5
0	6688	2.2	8
0	6689	2.2	5
0	6690	2.2	3
0	6691	2.2	5
0	6692	2.2	3
0	6693	2.2	1
0	6694	2.2	1
0	7212	2.25	3
0	7213	2.25	5
0	7214	2.25	3
0	7215	2.25	5
0	7216	2.25	8
0	7217	2.25	5
0	7218	2.25	3
0	7219	2.25	5
0	7220	2.25	3
0	7221	2.25	1
0	7222	2.25	1
0	7521	2.3	3
0	7522	2.3	5
0	7523	2.3	3
0	7524	2.3	5
0	7525	2.3	8
0	7526	2.3	5
0	7527	2.3	3
0	7528	2.3	5
0	7529	2.3	3
0	7530	2.3	1
0	7531	2.3	1
0	7532	2.3	3
0	7533	2.3	5
0	7534	2.3	3
0	7535	2.3	5
0	7536	2.3	8
0	7537	2.3	5
0	7538	2.3	3
0	7539	2.3	5
0	7540	2.3	3
0	7541	2.3	1
0	7542	2.3	1
0	7689	2.35	3
0	7690	2.35	5
0	7691	2.35	3
0	7692	2.35	5
0	7693	2.35	8
0	7694	2.35	5
0	7695	2.35	3
0	7696	2.35	5
0	7697	2.35	3
0	7698	2.35	1
0	7699	2.35	1
0	7879	2.4	3
0	7880	2.4	5
0	7881	2.4	3
0	7882	2.4	5
0	7883	2.4	8
0	7884	2.4	5
0	7885	2.4	3
0	7886	2.4	5
0	7887	2.4	3
0	7888	2.4	1
0	7889	2.4	1
0	7890	2.4	3
0	7891	2.4	5
0	7892	2.4	3
0	7893	2.4	5
0	7894	2.4	8
0	7895	2.4	5
0	7896	2.4	3
0	7897	2.4	5
0	7898	2.4	3
0	7899	2.4	1
0	7900	2.4	1
0	8034	2.45	3
0	8035	2.45	5
0	8036	2.45	3
0	8037	2.45	5
0	8038	2.45	8
0	8039	2.45	5
0	8040	2.45	3
0	8041	2.45	5
0	8042	2.45	3
0	8043	2.45	1
0	8044	2.45	1
0	8133	2.5	3
0	8134	2.5	5
0	8135	2.5	3
0	8136	2.5	5
0	8137	2.5	8
0	8138	2.5	5
0	8139	2.5	3
0	8140	2.5	5
0	8141	2.5	3
0	8142	2.5	1
0	8143	2.5	1
0	8144	2.5	3
0	8145	2.5	5
0	8146	2.5	3
0	8147	2.5	5
0	8148	2.5	8
0	8149	2.5	5
0	8150	2.5	3
0	8151	2.5	5
0	8152	2.5	3
0	8153	2.5	1
0	8154	2.5	1
0	8265	2.55	3
0	8266	2.55	5
0	8267	2.55	3
0	8268	2.55	5
0	8269	2.55	8
0	8270	2.55	5
0	8271	2.55	3
0	8272	2.55	5
0	8273	2.55	3
0	8274	2.55	1
0	8275	2.55	1
0	8364	2.6	3
0	8365	2.6	5
0	8366	2.6	3
0	8367	2.6	5
0	8368	2.6	8
0	8369	2.6	5
0	8370	2.6	3
0	8371	2.6	5
0	8372	2.6	3
0	8373	2.6	1
0	8374	2.6	1
0	8375	2.6	3
0	8376	2.6	5
0	8377	2.6	3
0	8378	2.6	5
0	8379	2.6	8
0	8380	2.6	5
0	8381	2.6	3
0	8382	2.6	5
0	8383	2.6	3
0	8384	2.6	1
0	8385	2.6	1
0	8496	2.65	3
0	8497	2.65	5
0	8498	2.65	3
0	8499	2.65	5
0	8500	2.65	8
0	8501	2.65	5
0	8502	2.65	3
0	8503	2.65	5
0	8504	2.65	3
0	8505	2.65	1
0	8506	2.65	1
0	8595	2.7	3
0	8596	2.7	5
0	8597	2.7	3
0	8598	2.7	5
0	8599	2.7	8
0	8600	2.7	5
0	8601	2.7	3
0	8602	2.7	5
0	8603	2.7	3
0	8604	2.7	1
0	8605	2.7	1
0	8606	2.7	3
0	8607	2.7	5
0	8608	2.7	3
0	8609	2.7	5
0	8610	2.7	8
0	8611	2.7	5
0	8612	2.7	3
0	8613	2.7	5
0	8614	2.7	3
0	8615	2.7	1
0	8616	2.7	1
0	8772	2.75	3
0	8773	2.75	5
0	8774	2.75	3
0	8775	2.75	5
0	8776	2.75	8
0	8777	2.75	5
0	8778	2.75	3
0	8779	2.75	5
0	8780	2.75	3
0	8781	2.75	1
0	8782	2.75	1
0	9264	2.8	3
0	9265	2.8	5
0	9266	2.8	3
0	9267	2.8	5
0	9268	2.8	8
0	9269	2.8	5
0	9270	2.8	3
0	9271	2.8	5
0	9272	2.8	3
0	9273	2.8	1
0	9274	2.8	1
0	9275	2.8	3
0	9276	2.8	5
0	9277	2.8	3
0	9278	2.8	5
0	9279	2.8	8
0	9280	2.8	5
0	9281	2.8	3
0	9282	2.8	5
0	9283	2.8	3
0	9284	2.8	1
0	9285	2.8	1
0	9558	2.85	3
0	9559	2.85	5
0	9560	2.85	3
0	9561	2.85	5
0	9562	2.85	8
0	9563	2.85	5
0	9564	2.85	3
0	9565	2.85	5
0	9566	2.85	3
0	9567	2.85	1
0	9568	2.85	1
0	9657	2.9	3
0	9658	2.9	5
0	9659	2.9	3
0	9660	2.9	5
0	9661	2.9	8
0	9662	2.9	5
0	9663	2.9	3
0	9664	2.9	5
0	9665	2.9	3
0	9666	2.9	1
0	9667	2.9	1
0	9668	2.9	3
0	9669	2.9	5
0	9670	2.9	3
0	9671	2.9	5
0	9672	2.9	8
0	9673	2.9	5
0	9674	2.9	3
0	9675	2.9	5
0	9676	2.9	3
0	9677	2.9	1
0	9678	2.9	1
0	9881	2.95	3
0	9882	2.95	5
0	9883	2.95	3
0	9884	2.95	5
0	9885	2.95	8
0	9886	2.95	5
0	9887	2.95	3
0	9888	2.95	5
0	9889	2.95	3
0	9890	2.95	1
0	9891	2.95	1
0	10002	3	3
0	10003	3	5
0	10004	3	3
0	10005	3	5
0	10006	3	8
0	10007	3	5
0	10008	3	3
0	10009	3	5
0	10010	3	3
0	10011	3	1
0	10012	3	1
0	10013	3	3
0	10014	3	5
0	10015	3	3
0	10016	3	5
0	10017	3	8
0	10018	3	5
0	10019	3	3
0	10020	3	5
0	10021	3	3
0	10022	3	1
0	10023	3	1
0	10134	3.05	3
0	10135	3.05	5
0	10136	3.05	3
0	10137	3.05	5
0	10138	3.05	8
0	10139	3.05	5
0	10140	3.05	3
0	10141	3.05	5
0	10142	3.05	3
0	10143	3.05	1
0	10144	3.05	1
0	10244	3.1	3
0	10245	3.1	5
0	10246	3.1	3
0	10247	3.1	5
0	10248	3.1	8
0	10249	3.1	5
0	10250	3.1	3
0	10251	3.1	5
0	10252	3.1	3
0	10253	3.1	1
0	10254	3.1	1
0	10255	3.1	3
0	10256	3.1	5
0	10257	3.1	3
0	10258	3.1	5
0	10259	3.1	8
0	10260	3.1	5
0	10261	3.1	3
0	10262	3.1	5
0	10263	3.1	3
0	10264	3.1	1
0	10265	3.1	1
0	10387	3.15	3
0	10388	3.15	5
0	10389	3.15	3
0	10390	3.15	5
0	10391	3.15	8
0	10392	3.15	5
0	10393	3.15	3
0	10394	3.15	5
0	10395	3.15	3
0	10396	3.15	1
0	10397	3.15	1
0	10486	3.2	3
0	10487	3.2	5
0	10488	3.2	3
0	10489	3.2	5
0	10490	3.2	8
0	10491	3.2	5
0	10492	3.2	3
0	10493	3.2	5
0	10494	3.2	3
0	10495	3.2	1
0	10496	3.2	1
0	10497	3.2	3
0	10498	3.2	5
0	10499	3.2	3
0	10500	3.2	5
0	10501	3.2	8
0	10502	3.2	5
0	10503	3.2	3
0	10504	3.2	5
0	10505	3.2	3
0	10506	3.2	1
0	10507	3.2	1
0	10618	3.25	3
0	10619	3.25	5
0	10620	3.25	3
0	10621	3.25	5
0	10622	3.25	8
0	10623	3.25	5
0	10624	3.25	3
0	10625	3.25	5
0	10626	3.25	3
0	10627	3.25	1
0	10628	3.25	1
0	10773	3.3	3
0	10774	3.3	5
0	10775	3.3	3
0	10776	3.3	5
0	10777	3.3	8
0	10778	3.3	5
0	10779	3.3	3
0	10780	3.3	5
0	10781	3.3	3
0	10782	3.3	1
0	10783	3.3	1
0	10784	3.3	3
0	10785	3.3	5
0	10786	3.3	3
0	10787	3.3	5
0	10788	3.3	8
0	10789	3.3	5
0	10790	3.3	3
0	10791	3.3	5
0	10792	3.3	3
0	10793	3.3	1
0	10794	3.3	1
0	11299	3.35	3
0	11300	3.35	5
0	11301	3.35	3
0	11302	3.35	5
0	11303	3.35	8
0	11304	3.35	5
0	11305	3.35	3
0	11306	3.35	5
0	11307	3.35	3
0	11308	3.35	1
0	11309	3.35	1
0	11491	3.4	3
0	11492	3.4	5
0	11493	3.4	3
0	11494	3.4	5
0	11495	3.4	8
0	11496	3.4	5
0	11497	3.4	3
0	11498	3.4	5
0	11499	3.4	3
0	11500	3.4	1
0	11501	3.4	1
0	11502	3.4	3
0	11503	3.4	5
0	11504	3.4	3
0	11505	3.4	5
0	11506	3.4	8
0	11507	3.4	5
0	11508	3.4	3
0	11509	3.4	5
0	11510	3.4	3
0	11511	3.4	1
0	11512	3.4	1
0	11628	3.45	3
0	11629	3.45	5
0	11630	3.45	3
0	11631	3.45	5
0	11632	3.45	8
0	11633	3.45	5
0	11634	3.45	3
0	11635	3.45	5
0	11636	3.45	3
0	11637	3.45	1
0	11638	3.45	1
0	11813	3.5	3
0	11814	3.5	5
0	11815	3.5	3
0	11816	3.5	5
0	11817	3.5	8
0	11818	3.5	5
0	11819	3.5	3
0	11820	3.5	5
0	11821	3.5	3
0	11822	3.5	1
0	11823	3.5	1
0	11824	3.5	3
0	11825	3.5	5
0	11826	3.5	3
0	11827	3.5	5
0	11828	3.5	8
0	11829	3.5	5
0	11830	3.5	3
0	11831	3.5	5
0	11832	3.5	3
0	11833	3.5	1
0	11834	3.5	1
0	11950	3.55	3
0	11951	3.55	5
0	11952	3.55	3
0	11953	3.55	5
0	11954	3.55	8
0	11955	3.55	5
0	11956	3.55	3
0	11957	3.55	5
0	11958	3.55	3
0	11959	3.55	1
0	11960	3.55	1
0	12049	3.6	3
0	12050	3.6	5
0	12051	3.6	3
0	12052	3.6	5
0	12053	3.6	8
0	12054	3.6	5
0	12055	3.6	3
0	12056	3.6	5
0	12057	3.6	3
0	12058	3.6	1
0	12059	3.6	1
0	12060	3.6	3
0	12061	3.6	5
0	12062	3.6	3
0	12063	3.6	5
0	12064	3.6	8
0	12065	3.6	5
0	12066	3.6	3
0	12067	3.6	5
0	12068	3.6	3
0	12069	3.6	1
0	12070	3.6	1
0	12181	3.65	3
0	12182	3.65	5
0	12183	3.65	3
0	12184	3.65	5
0	12185	3.65	8
0	12186	3.65	5
0	12187	3.65	3
0	12188	3.65	5
0	12189	3.65	3
0	12190	3.65	1
0	12191	3.65	1
0	12280	3.7	3
0	12281	3.7	5
0	12282	3.7	3
0	12283	3.7	5
0	12284	3.7	8
0	12285	3.7	5
0	12286	3.7	3
0	12287	3.7	5
0	12288	3.7	3
0	12289	3.7	1
0	12290	3.7	1
0	12291	3.7	3
0	12292	3.7	5
0	12293	3.7	3
0	12294	3.7	5
0	12295	3.7	8
0	12296	3.7	5
0	12297	3.7	3
0	12298	3.7	5
0	12299	3.7	3
0	12300	3.7	1
0	12301	3.7	1
0	12412	3.75	3
0	12413	3.75	5
0	12414	3.75	3
0	12415	3.75	5
0	12416	3.75	8
0	12417	3.75	5
0	12418	3.75	3
0	12419	3.75	5
0	12420	3.75	3
0	12421	3.75	1
0	12422	3.75	1
0	12511	3.8	3
0	12512	3.8	5
0	12513	3.8	3
0	12514	3.8	5
0	12515	3.8	8
0	12516	3.8	5
0	12517	3.8	3
0	12518	3.8	5
0	12519	3.8	3
0	12520	3.8	1
0	12521	3.8	1
0	12522	3.8	3
0	12523	3.8	5
0	12524	3.8	3
0	12525	3.8	5
0	12526	3.8	8
0	12527	3.8	5
0	12528	3.8	3
0	12529	3.8	5
0	12530	3.8	3
0	12531	3.8	1
0	12532	3.8	1
0	12694	3.85	3
0	12695	3.85	5
0	12696	3.85	3
0	12697	3.85	5
0	12698	3.85	8
0	12699	3.85	5
0	12700	3.85	3
0	12701	3.85	5
0	12702	3.85	3
0	12703	3.85	1
0	12704	3.85	1
0	13133	3.9	3
0	13134	3.9	5
0	13135	3.9	3
0	13136	3.9	5
0	13137	3.9	8
0	13138	3.9	5
0	13139	3.9	3
0	13140	3.9	5
0	13141	3.9	3
0	13142	3.9	1
0	13143	3.9	1
0	13144	3.9	3
0	13145	3.9	5
0	13146	3.9	3
0	13147	3.9	5
0	13148	3.9	8
0	13149	3.9	5
0	13150	3.9	3
0	13151	3.9	5
0	13152	3.9	3
0	13153	3.9	1
0	13154	3.9	1
0	13313	3.95	3
0	13314	3.95	5
0	13315	3.95	3
0	13316	3.95	5
0	13317	3.95	8
0	13318	3.95	5
0	13319	3.95	3
0	13320	3.95	5
0	13321	3.95	3
0	13322	3.95	1
0	13323	3.95	1
0	13498	4	3
0	13499	4	5
0	13500	4	3
0	13501	4	5
0	13502	4	8
0	13503	4	5
0	13504	4	3
0	13505	4	5
0	13506	4	3
0	13507	4	1
0	13508	4	1
0	13509	4	3
0	13510	4	5
0	13511	4	3
0	13512	4	5
0	13513	4	8
0	13514	4	5
0	13515	4	3
0	13516	4	5
0	13517	4	3
0	13518	4	1
0	13519	4	1
0	13699	4.05	3
0	13700	4.05	5
0	13701	4.05	3
0	13702	4.05	5
0	13703	4.05	8
0	13704	4.05	5
0	13705	4.05	3
0	13706	4.05	5
0	13707	4.05	3
0	13708	4.05	1
0	13709	4.05	1
0	13809	4.1	3
0	13810	4.1	5
0	13811	4.1	3
0	13812	4.1	5
0	13813	4.1	8
0	13814	4.1	5
0	13815	4.1	3
0	13816	4.1	5
0	13817	4.1	3
0	13818	4.1	1
0	13819	4.1	1
0	13820	4.1	3
0	13821	4.1	5
0	13822	4.1	3
0	13823	4.1	5
0	13824	4.1	8
0	13825	4.1	5
0	13826	4.1	3
0	13827	4.1	5
0	13828	4.1	3
0	13829	4.1	1
0	13830	4.1	1
0	13975	4.15	3
0	13976	4.15	5
0	13977	4.15	3
0	13978	4.15	5
0	13979	4.15	8
0	13980	4.15	5
0	13981	4.15	3
0	13982	4.15	5
0	13983	4.15	3
0	13984	4.15	1
0	13985	4.15	1
0	14074	4.2	3
0	14075	4.2	5
0	14076	4.2	3
0	14077	4.2	5
0	14078	4.2	8
0	14079	4.2	5
0	14080	4.2	3
0	14081	4.2	5
0	14082	4.2	3
0	14083	4.2	1
0	14084	4.2	1
0	14085	4.2	3
0	14086	4.2	5
0	14087	4.2	3
0	14088	4.2	5
0	14089	4.2	8
0	14090	4.2	5
0	14091	4.2	3
0	14092	4.2	5
0	14093	4.2	3
0	14094	4.2	1
0	14095	4.2	1
0	14206	4.25	3
0	14207	4.25	5
0	14208	4.25	3
0	14209	4.25	5
0	14210	4.25	8
0	14211	4.25	5
0	14212	4.25	3
0	14213	4.25	5
0	14214	4.25	3
0	14215	4.25	1
0	14216	4.25	1
0	14305	4.3	3
0	14306	4.3	5
0	14307	4.3	3
0	14308	4.3	5
0	14309	4.3	8
0	14310	4.3	5
0	14311	4.3	3
0	14312	4.3	5
0	14313	4.3	3
0	14314	4.3	1
0	14315	4.3	1
0	14316	4.3	3
0	14317	4.3	5
0	14318	4.3	3
0	14319	4.3	5
0	14320	4.3	8
0	14321	4.3	5
0	14322	4.3	3
0	14323	4.3	5
0	14324	4.3	3
0	14325	4.3	1
0	14326	4.3	1
0	14437	4.35	3
0	14438	4.35	5
0	14439	4.35	3
0	14440	4.35	5
0	14441	4.35	8
0	14442	4.35	5
0	14443	4.35	3
0	14444	4.35	5
0	14445	4.35	3
0	14446	4.35	1
0	14447	4.35	1
0	14633	4.4	3
0	14634	4.4	5
0	14635	4.4	3
0	14636	4.4	5
0	14637	4.4	8
0	14638	4.4	5
0	14639	4.4	3
0	14640	4.4	5
0	14641	4.4	3
0	14642	4.4	1
0	14643	4.4	1
0	14644	4.4	3
0	14645	4.4	5
0	14646	4.4	3
0	14647	4.4	5
0	14648	4.4	8
0	14649	4.4	5
0	14650	4.4	3
0	14651	4.4	5
0	14652	4.4	3
0	14653	4.4	1
0	14654	4.4	1
0	15073	4.45	3
0	15074	4.45	5
0	15075	4.45	3
0	15076	4.45	5
0	15077	4.45	8
0	15078	4.45	5
0	15079	4.45	3
0	15080	4.45	5
0	15081	4.45	3
0	15082	4.45	1
0	15083	4.45	1
0	15236	4.5	3
0	15237	4.5	5
0	15238	4.5	3
0	15239	4.5	5
0	15240	4.5	8
0	15241	4.5	5
0	15242	4.5	3
0	15243	4.5	5
0	15244	4.5	3
0	15245	4.5	1
0	15246	4.5	1
0	15247	4.5	3
0	15248	4.5	5
0	15249	4.5	3
0	15250	4.5	5
0	15251	4.5	8
0	15252	4.5	5
0	15253	4.5	3
0	15254	4.5	5
0	15255	4.5	3
0	15256	4.5	1
0	15257	4.5	1
0	15430	4.55	3
0	15431	4.55	5
0	15432	4.55	3
0	15433	4.55	5
0	15434	4.55	8
0	15435	4.55	5
0	15436	4.55	3
0	15437	4.55	5
0	15438	4.55	3
0	15439	4.55	1
0	15440	4.55	1
0	15621	4.6	3
0	15622	4.6	5
0	15623	4.6	3
0	15624	4.6	5
0	15625	4.6	8
0	15626	4.6	5
0	15627	4.6	3
0	15628	4.6	5
0	15629	4.6	3
0	15630	4.6	1
0	15631	4.6	1
0	15632	4.6	3
0	15633	4.6	5
0	15634	4.6	3
0	15635	4.6	5
0	15636	4.6	8
0	15637	4.6	5
0	15638	4.6	3
0	15639	4.6	5
0	15640	4.6	3
0	15641	4.6	1
0	15642	4.6	1
0	15776	4.65	3
0	15777	4.65	5
0	15778	4.65	3
0	15779	4.65	5
0	15780	4.65	8
0	15781	4.65	5
0	15782	4.65	3
0	15783	4.65	5
0	15784	4.65	3
0	15785	4.65	1
0	15786	4.65	1
0	15898	4.7	3
0	15899	4.7	5
0	15900	4.7	3
0	15901	4.7	5
0	15902	4.7	8
0	15903	4.7	5
0	15904	4.7	3
0	15905	4.7	5
0	15906	4.7	3
0	15907	4.7	1
0	15908	4.7	1
0	15909	4.7	3
0	15910	4.7	5
0	15911	4.7	3
0	15912	4.7	5
0	15913	4.7	8
0	15914	4.7	5
0	15915	4.7	3
0	15916	4.7	5
0	15917	4.7	3
0	15918	4.7	1
0	15919	4.7	1
0	16030	4.75	3
0	16031	4.75	5
0	16032	4.75	3
0	16033	4.75	5
0	16034	4.75	8
0	16035	4.75	5
0	16036	4.75	3
0	16037	4.75	5
0	16038	4.75	3
0	16039	4.75	1
0	16040	4.75	1
0	16129	4.8	3
0	16130	4.8	5
0	16131	4.8	3
0	16132	4.8	5
0	16133	4.8	8
0	16134	4.8	5
0	16135	4.8	3
0	16136	4.8	5
0	16137	4.8	3
0	16138	4.8	1
0	16139	4.8	1
0	16140	4.8	3
0	16141	4.8	5
0	16142	4.8	3
0	16143	4.8	5
0	16144	4.8	8
0	16145	4.8	5
0	16146	4.8	3
0	16147	4.8	5
0	16148	4.8	3
0	16149	4.8	1
0	16150	4.8	1
0	16261	4.85	3
0	16262	4.85	5
0	16263	4.85	3
0	16264	4.85	5
0	16265	4.85	8
0	16266	4.85	5
0	16267	4.85	3
0	16268	4.85	5
0	16269	4.85	3
0	16270	4.85	1
0	16271	4.85	1
0	16383	4.9	3
0	16384	4.9	5
0	16385	4.9	3
0	16386	4.9	5
0	16387	4.9	8
0	16388	4.9	5
0	16389	4.9	3
0	16390	4.9	5
0	16391	4.9	3
0	16392	4.9	1
0	16393	4.9	1
0	16394	4.9	3
0	16395	4.9	5
0	16396	4.9	3
0	16397	4.9	5
0	16398	4.9	8
0	16399	4.9	5
0	16400	4.9	3
0	16401	4.9	5
0	16402	4.9	3
0	16403	4.9	1
0	16404	4.9	1
0	16589	4.95	3
0	16590	4.95	5
0	16591	4.95	3
0	16592	4.95	5
0	16593	4.95	8
0	16594	4.95	5
0	16595	4.95	3
0	16596	4.95	5
0	16597	4.95	3
0	16598	4.95	1
0	16599	4.95	1
0	17003	5	3
0	17004	5	5
0	17005	5	3
0	17006	5	5
0	17007	5	8
0	17008	5	5
0	17009	5	3
0	17010	5	5
0	17011	5	3
0	17012	5	1
0	17013	5	1
0	17014	5	3
0	17015	5	5
0	17016	5	3
0	17017	5	5
0	17018	5	8
0	17019	5	5
0	17020	5	3
0	17021	5	5
0	17022	5	3
0	17023	5	1
0	17024	5	1
0	17192	5.05	3
0	17193	5.05	5
0	17194	5.05	3
0	17195	5.05	5
0	17196	5.05	8
0	17197	5.05	5
0	17198	5.05	3
0	17199	5.05	5
0	17200	5.05	3
0	17201	5.05	1
0	17202	5.05	1
0	17392	5.1	3
0	17393	5.1	5
0	17394	5.1	3
0	17395	5.1	5
0	17396	5.1	8
0	17397	5.1	5
0	17398	5.1	3
0	17399	5.1	5
0	17400	5.1	3
0	17401	5.1	1
0	17402	5.1	1
0	17403	5.1	3
0	17404	5.1	5
0	17405	5.1	3
0	17406	5.1	5
0	17407	5.1	8
0	17408	5.1	5
0	17409	5.1	3
0	17410	5.1	5
0	17411	5.1	3
0	17412	5.1	1
0	17413	5.1	1
0	17654	5.15	3
0	17655	5.15	5
0	17656	5.15	3
0	17657	5.15	5
0	17658	5.15	8
0	17659	5.15	5
0	17660	5.15	3
0	17661	5.15	5
0	17662	5.15	3
0	17663	5.15	1
0	17664	5.15	1
0	17806	5.2	3
0	17807	5.2	5
0	17808	5.2	3
0	17809	5.2	5
0	17810	5.2	8
0	17811	5.2	5
0	17812	5.2	3
0	17813	5.2	5
0	17814	5.2	3
0	17815	5.2	1
0	17816	5.2	1
0	17817	5.2	3
0	17818	5.2	5
0	17819	5.2	3
0	17820	5.2	5
0	17821	5.2	8
0	17822	5.2	5
0	17823	5.2	3
0	17824	5.2	5
0	17825	5.2	3
0	17826	5.2	1
0	17827	5.2	1
0	17961	5.25	3
0	17962	5.25	5
0	17963	5.25	3
0	17964	5.25	5
0	17965	5.25	8
0	17966	5.25	5
0	17967	5.25	3
0	17968	5.25	5
0	17969	5.25	3
0	17970	5.25	1
0	17971	5.25	1
0	18060	5.3	3
0	18061	5.3	5
0	18062	5.3	3
0	18063	5.3	5
0	18064	5.3	8
0	18065	5.3	5
0	18066	5.3	3
0	18067	5.3	5
0	18068	5.3	3
0	18069	5.3	1
0	18070	5.3	1
0	18071	5.3	3
0	18072	5.3	5
0	18073	5.3	3
0	18074	5.3	5
0	18075	5.3	8
0	18076	5.3	5
0	18077	5.3	3
0	18078	5.3	5
0	18079	5.3	3
0	18080	5.3	1
0	18081	5.3	1
0	18192	5.35	3
0	18193	5.35	5
0	18194	5.35	3
0	18195	5.35	5
0	18196	5.35	8
0	18197	5.35	5
0	18198	5.35	3
0	18199	5.35	5
0	18200	5.35	3
0	18201	5.35	1
0	18202	5.35	1
0	18291	5.4	3
0	18292	5.4	5
0	18293	5.4	3
0	18294	5.4	5
0	18295	5.4	8
0	18296	5.4	5
0	18297	5.4	3
0	18298	5.4	5
0	18299	5.4	3
0	18300	5.4	1
0	18301	5.4	1
0	18302	5.4	3
0	18303	5.4	5
0	18304	5.4	3
0	18305	5.4	5
0	18306	5.4	8
0	18307	5.4	5
0	18308	5.4	3
0	18309	5.4	5
0	18310	5.4	3
0	18311	5.4	1
0	18312	5.4	1
0	18428	5.45	3
0	18429	5.45	5
0	18430	5.45	3
0	18431	5.45	5
0	18432	5.45	8
0	18433	5.45	5
0	18434	5.45	3
0	18435	5.45	5
0	18436	5.45	3
0	18437	5.45	1
0	18438	5.45	1
0	18589	5.5	3
0	18590	5.5	5
0	18591	5.5	3
0	18592	5.5	5
0	18593	5.5	8
0	18594	5.5	5
0	18595	5.5	3
0	18596	5.5	5
0	18597	5.5	3
0	18598	5.5	1
0	18599	5.5	1
0	18600	5.5	3
0	18601	5.5	5
0	18602	5.5	3
0	18603	5.5	5
0	18604	5.5	8
0	18605	5.5	5
0	18606	5.5	3
0	18607	5.5	5
0	18608	5.5	3
0	18609	5.5	1
0	18610	5.5	1
0	19103	5.55	3
0	19104	5.55	5
0	19105	5.55	3
0	19106	5.55	5
0	19107	5.55	8
0	19108	5.55	5
0	19109	5.55	3
0	19110	5.55	5
0	19111	5.55	3
0	19112	5.55	1
0	19113	5.55	1
0	19457	5.6	3
0	19458	5.6	5
0	19459	5.6	3
0	19460	5.6	5
0	19461	5.6	8
0	19462	5.6	5
0	19463	5.6	3
0	19464	5.6	5
0	19465	5.6	3
0	19466	5.6	1
0	19467	5.6	1
0	19468	5.6	3
0	19469	5.6	5
0	19470	5.6	3
0	19471	5.6	5
0	19472	5.6	8
0	19473	5.6	5
0	19474	5.6	3
0	19475	5.6	5
0	19476	5.6	3
0	19477	5.6	1
0	19478	5.6	1
0	19965	5.65	3
0	19966	5.65	5
0	19967	5.65	3
0	19968	5.65	5
0	19969	5.65	8
0	19970	5.65	5
0	19971	5.65	3
0	19972	5.65	5
0	19973	5.65	3
0	19974	5.65	1
0	19975	5.65	1
0	20281	5.7	3
0	20282	5.7	5
0	20283	5.7	3
0	20284	5.7	5
0	20285	5.7	8
0	20286	5.7	5
0	20287	5.7	3
0	20288	5.7	5
0	20289	5.7	3
0	20290	5.7	1
0	20291	5.7	1
0	20292	5.7	3
0	20293	5.7	5
0	20294	5.7	3
0	20295	5.7	5
0	20296	5.7	8
0	20297	5.7	5
0	20298	5.7	3
0	20299	5.7	5
0	20300	5.7	3
0	20301	5.7	1
0	20302	5.7	1
0	20482	5.75	3
0	20483	5.75	5
0	20484	5.75	3
0	20485	5.75	5
0	20486	5.75	8
0	20487	5.75	5
0	20488	5.75	3
0	20489	5.75	5
0	20490	5.75	3
0	20491	5.75	1
0	20492	5.75	1
0	20650	5.8	3
0	20651	5.8	5
0	20652	5.8	3
0	20653	5.8	5
0	20654	5.8	8
0	20655	5.8	5
0	20656	5.8	3
0	20657	5.8	5
0	20658	5.8	3
0	20659	5.8	1
0	20660	5.8	1
0	20661	5.8	3
0	20662	5.8	5
0	20663	5.8	3
0	20664	5.8	5
0	20665	5.8	8
0	20666	5.8	5
0	20667	5.8	3
0	20668	5.8	5
0	20669	5.8	3
0	20670	5.8	1
0	20671	5.8	1
0	20782	5.85	3
0	20783	5.85	5
0	20784	5.85	3
0	20785	5.85	5
0	20786	5.85	8
0	20787	5.85	5
0	20788	5.85	3
0	20789	5.85	5
0	20790	5.85	3
0	20791	5.85	1
0	20792	5.85	1
0	20881	5.9	3
0	20882	5.9	5
0	20883	5.9	3
0	20884	5.9	5
0	20885	5.9	8
0	20886	5.9	5
0	20887	5.9	3
0	20888	5.9	5
0	20889	5.9	3
0	20890	5.9	1
0	20891	5.9	1
0	20892	5.9	3
0	20893	5.9	5
0	20894	5.9	3
0	20895	5.9	5
0	20896	5.9	8
0	20897	5.9	5
0	20898	5.9	3
0	20899	5.9	5
0	20900	5.9	3
0	20901	5.9	1
0	20902	5.9	1
0	21013	5.95	3
0	21014	5.95	5
0	21015	5.95	3
0	21016	5.95	5
0	21017	5.95	8
0	21018	5.95	5
0	21019	5.95	3
0	21020	5.95	5
0	21021	5.95	3
0	21022	5.95	1
0	21023	5.95	1
0	21146	6	3
0	21147	6	5
0	21148	6	3
0	21149	6	5
0	21150	6	8
0	21151	6	5
0	21152	6	3
0	21153	6	5
0	21154	6	3
0	21155	6	1
0	21156	6	1
0	21157	6	3
0	21158	6	5
0	21159	6	3
0	21160	6	5
0	21161	6	8
0	21162	6	5
0	21163	6	3
0	21164	6	5
0	21165	6	3
0	21166	6	1
0	21167	6	1
0	21318	6.05	3
0	21319	6.05	5
0	21320	6.05	3
0	21321	6.05	5
0	21322	6.05	8
0	21323	6.05	5
0	21324	6.05	3
0	21325	6.05	5
0	21326	6.05	3
0	21327	6.05	1
0	21328	6.05	1
0	21761	6.1	3
0	21762	6.1	5
0	21763	6.1	3
0	21764	6.1	5
0	21765	6.1	8
0	21766	6.1	5
0	21767	6.1	3
0	21768	6.1	5
0	21769	6.1	3
0	21770	6.1	1
0	21771	6.1	1
0	21772	6.1	3
0	21773	6.1	5
0	21774	6.1	3
0	21775	6.1	5
0	21776	6.1	8
0	21777	6.1	5
0	21778	6.1	3
0	21779	6.1	5
0	21780	6.1	3
0	21781	6.1	1
0	21782	6.1	1
0	22072	6.15	3
0	22073	6.15	5
0	22074	6.15	3
0	22075	6.15	5
0	22076	6.15	8
0	22077	6.15	5
0	22078	6.15	3
0	22079	6.15	5
0	22080	6.15	3
0	22081	6.15	1
0	22082	6.15	1
0	22422	6.2	3
0	22423	6.2	5
0	22424	6.2	3
0	22425	6.2	5
0	22426	6.2	8
0	22427	6.2	5
0	22428	6.2	3
0	22429	6.2	5
0	22430	6.2	3
0	22431	6.2	1
0	22432	6.2	1
0	22433	6.2	3
0	22434	6.2	5
0	22435	6.2	3
0	22436	6.2	5
0	22437	6.2	8
0	22438	6.2	5
0	22439	6.2	3
0	22440	6.2	5
0	22441	6.2	3
0	22442	6.2	1
0	22443	6.2	1
0	22713	6.25	3
0	22714	6.25	5
0	22715	6.25	3
0	22716	6.25	5
0	22717	6.25	8
0	22718	6.25	5
0	22719	6.25	3
0	22720	6.25	5
0	22721	6.25	3
0	22722	6.25	1
0	22723	6.25	1
0	22817	6.3	3
0	22818	6.3	5
0	22819	6.3	3
0	22820	6.3	5
0	22821	6.3	8
0	22822	6.3	5
0	22823	6.3	3
0	22824	6.3	5
0	22825	6.3	3
0	22826	6.3	1
0	22827	6.3	1
0	22828	6.3	3
0	22829	6.3	5
0	22830	6.3	3
0	22831	6.3	5
0	22832	6.3	8
0	22833	6.3	5
0	22834	6.3	3
0	22835	6.3	5
0	22836	6.3	3
0	22837	6.3	1
0	22838	6.3	1
0	23018	6.35	3
0	23019	6.35	5
0	23020	6.35	3
0	23021	6.35	5
0	23022	6.35	8
0	23023	6.35	5
0	23024	6.35	3
0	23025	6.35	5
0	23026	6.35	3
0	23027	6.35	1
0	23028	6.35	1
0	23117	6.4	3
0	23118	6.4	5
0	23119	6.4	3
0	23120	6.4	5
0	23121	6.4	8
0	23122	6.4	5
0	23123	6.4	3
0	23124	6.4	5
0	23125	6.4	3
0	23126	6.4	1
0	23127	6.4	1
0	23128	6.4	3
0	23129	6.4	5
0	23130	6.4	3
0	23131	6.4	5
0	23132	6.4	8
0	23133	6.4	5
0	23134	6.4	3
0	23135	6.4	5
0	23136	6.4	3
0	23137	6.4	1
0	23138	6.4	1
0	23249	6.45	3
0	23250	6.45	5
0	23251	6.45	3
0	23252	6.45	5
0	23253	6.45	8
0	23254	6.45	5
0	23255	6.45	3
0	23256	6.45	5
0	23257	6.45	3
0	23258	6.45	1
0	23259	6.45	1
0	23359	6.5	3
0	23360	6.5	5
0	23361	6.5	3
0	23362	6.5	5
0	23363	6.5	8
0	23364	6.5	5
0	23365	6.5	3
0	23366	6.5	5
0	23367	6.5	3
0	23368	6.5	1
0	23369	6.5	1
0	23370	6.5	3
0	23371	6.5	5
0	23372	6.5	3
0	23373	6.5	5
0	23374	6.5	8
0	23375	6.5	5
0	23376	6.5	3
0	23377	6.5	5
0	23378	6.5	3
0	23379	6.5	1
0	23380	6.5	1
0	23519	6.55	3
0	23520	6.55	5
0	23521	6.55	3
0	23522	6.55	5
0	23523	6.55	8
0	23524	6.55	5
0	23525	6.55	3
0	23526	6.55	5
0	23527	6.55	3
0	23528	6.55	1
0	23529	6.55	1
0	23710	6.6	3
0	23711	6.6	5
0	23712	6.6	3
0	23713	6.6	5
0	23714	6.6	8
0	23715	6.6	5
0	23716	6.6	3
0	23717	6.6	5
0	23718	6.6	3
0	23719	6.6	1
0	23720	6.6	1
0	23721	6.6	3
0	23722	6.6	5
0	23723	6.6	3
0	23724	6.6	5
0	23725	6.6	8
0	23726	6.6	5
0	23727	6.6	3
0	23728	6.6	5
0	23729	6.6	3
0	23730	6.6	1
0	23731	6.6	1
0	24171	6.65	3
0	24172	6.65	5
0	24173	6.65	3
0	24174	6.65	5
0	24175	6.65	8
0	24176	6.65	5
0	24177	6.65	3
0	24178	6.65	5
0	24179	6.65	3
0	24180	6.65	1
0	24181	6.65	1
0	24462	6.7	3
0	24463	6.7	5
0	24464	6.7	3
0	24465	6.7	5
0	24466	6.7	8
0	24467	6.7	5
0	24468	6.7	3
0	24469	6.7	5
0	24470	6.7	3
0	24471	6.7	1
0	24472	6.7	1
0	24473	6.7	3
0	24474	6.7	5
0	24475	6.7	3
0	24476	6.7	5
0	24477	6.7	8
0	24478	6.7	5
0	24479	6.7	3
0	24480	6.7	5
0	24481	6.7	3
0	24482	6.7	1
0	24483	6.7	1
0	24752	6.75	3
0	24753	6.75	5
0	24754	6.75	3
0	24755	6.75	5
0	24756	6.75	8
0	24757	6.75	5
0	24758	6.75	3
0	24759	6.75	5
0	24760	6.75	3
0	24761	6.75	1
0	24762	6.75	1
0	24967	6.8	3
0	24968	6.8	5
0	24969	6.8	3
0	24970	6.8	5
0	24971	6.8	8
0	24972	6.8	5
0	24973	6.8	3
0	24974	6.8	5
0	24975	6.8	3
0	24976	6.8	1
0	24977	6.8	1
0	24978	6.8	3
0	24979	6.8	5
0	24980	6.8	3
0	24981	6.8	5
0	24982	6.8	8
0	24983	6.8	5
0	24984	6.8	3
0	24985	6.8	5
0	24986	6.8	3
0	24987	6.8	1
0	24988	6.8	1
0	25104	6.85	3
0	25105	6.85	5
0	25106	6.85	3
0	25107	6.85	5
0	25108	6.85	8
0	25109	6.85	5
0	25110	6.85	3
0	25111	6.85	5
0	25112	6.85	3
0	25113	6.85	1
0	25114	6.85	1
0	25272	6.9	3
0	25273	6.9	5
0	25274	6.9	3
0	25275	6.9	5
0	25276	6.9	8
0	25277	6.9	5
0	25278	6.9	3
0	25279	6.9	5
0	25280	6.9	3
0	25281	6.9	1
0	25282	6.9	1
0	25283	6.9	3
0	25284	6.9	5
0	25285	6.9	3
0	25286	6.9	5
0	25287	6.9	8
0	25288	6.9	5
0	25289	6.9	3
0	25290	6.9	5
0	25291	6.9	3
0	25292	6.9	1
0	25293	6.9	1
0	25404	6.95	3
0	25405	6.95	5
0	25406	6.95	3
0	25407	6.95	5
0	25408	6.95	8
0	25409	6.95	5
0	25410	6.95	3
0	25411	6.95	5
0	25412	6.95	3
0	25413	6.95	1
0	25414	6.95	1
0	25514	7	3
0	25515	7	5
0	25516	7	3
0	25517	7	5
0	25518	7	8
0	25519	7	5
0	25520	7	3
0	25521	7	5
0	25522	7	3
0	25523	7	1
0	25524	7	1
0	25525	7	3
0	25526	7	5
0	25527	7	3
0	25528	7	5
0	25529	7	8
0	25530	7	5
0	25531	7	3
0	25532	7	5
0	25533	7	3
0	25534	7	1
0	25535	7	1
0	25646	7.05	3
0	25647	7.05	5
0	25648	7.05	3
0	25649	7.05	5
0	25650	7.05	8
0	25651	7.05	5
0	25652	7.05	3
0	25653	7.05	5
0	25654	7.05	3
0	25655	7.05	1
0	25656	7.05	1
0	25796	7.1	3
0	25797	7.1	5
0	25798	7.1	3
0	25799	7.1	5
0	25800	7.1	8
0	25801	7.1	5
0	25802	7.1	3
0	25803	7.1	5
0	25804	7.1	3
0	25805	7.1	1
0	25806	7.1	1
0	25807	7.1	3
0	25808	7.1	5
0	25809	7.1	3
0	25810	7.1	5
0	25811	7.1	8
0	25812	7.1	5
0	25813	7.1	3
0	25814	7.1	5
0	25815	7.1	3
0	25816	7.1	1
0	25817	7.1	1
0	25997	7.15	3
0	25998	7.15	5
0	25999	7.15	3
0	26000	7.15	5
0	26001	7.15	8
0	26002	7.15	5
0	26003	7.15	3
0	26004	7.15	5
0	26005	7.15	3
0	26006	7.15	1
0	26007	7.15	1
0	26366	7.2	3
0	26367	7.2	5
0	26368	7.2	3
0	26369	7.2	5
0	26370	7.2	8
0	26371	7.2	5
0	26372	7.2	3
0	26373	7.2	5
0	26374	7.2	3
0	26375	7.2	1
0	26376	7.2	1
0	26377	7.2	3
0	26378	7.2	5
0	26379	7.2	3
0	26380	7.2	5
0	26381	7.2	8
0	26382	7.2	5
0	26383	7.2	3
0	26384	7.2	5
0	26385	7.2	3
0	26386	7.2	1
0	26387	7.2	1
0	26677	7.25	3
0	26678	7.25	5
0	26679	7.25	3
0	26680	7.25	5
0	26681	7.25	8
0	26682	7.25	5
0	26683	7.25	3
0	26684	7.25	5
0	26685	7.25	3
0	26686	7.25	1
0	26687	7.25	1
0	27005	7.3	3
0	27006	7.3	5
0	27007	7.3	3
0	27008	7.3	5
0	27009	7.3	8
0	27010	7.3	5
0	27011	7.3	3
0	27012	7.3	5
0	27013	7.3	3
0	27014	7.3	1
0	27015	7.3	1
0	27016	7.3	3
0	27017	7.3	5
0	27018	7.3	3
0	27019	7.3	5
0	27020	7.3	8
0	27021	7.3	5
0	27022	7.3	3
0	27023	7.3	5
0	27024	7.3	3
0	27025	7.3	1
0	27026	7.3	1
0	27322	7.35	3
0	27323	7.35	5
0	27324	7.35	3
0	27325	7.35	5
0	27326	7.35	8
0	27327	7.35	5
0	27328	7.35	3
0	27329	7.35	5
0	27330	7.35	3
0	27331	7.35	1
0	27332	7.35	1
0	27558	7.4	3
0	27559	7.4	5
0	27560	7.4	3
0	27561	7.4	5
0	27562	7.4	8
0	27563	7.4	5
0	27564	7.4	3
0	27565	7.4	5
0	27566	7.4	3
0	27567	7.4	1
0	27568	7.4	1
0	27569	7.4	3
0	27570	7.4	5
0	27571	7.4	3
0	27572	7.4	5
0	27573	7.4	8
0	27574	7.4	5
0	27575	7.4	3
0	27576	7.4	5
0	27577	7.4	3
0	27578	7.4	1
0	27579	7.4	1
0	27771	7.45	3
0	27772	7.45	5
0	27773	7.45	3
0	27774	7.45	5
0	27775	7.45	8
0	27776	7.45	5
0	27777	7.45	3
0	27778	7.45	5
0	27779	7.45	3
0	27780	7.45	1
0	27781	7.45	1
0	27870	7.5	3
0	27871	7.5	5
0	27872	7.5	3
0	27873	7.5	5
0	27874	7.5	8
0	27875	7.5	5
0	27876	7.5	3
0	27877	7.5	5
0	27878	7.5	3
0	27879	7.5	1
0	27880	7.5	1
0	27881	7.5	3
0	27882	7.5	5
0	27883	7.5	3
0	27884	7.5	5
0	27885	7.5	8
0	27886	7.5	5
0	27887	7.5	3
0	27888	7.5	5
0	27889	7.5	3
0	27890	7.5	1
0	27891	7.5	1
0	28002	7.55	3
0	28003	7.55	5
0	28004	7.55	3
0	28005	7.55	5
0	28006	7.55	8
0	28007	7.55	5
0	28008	7.55	3
0	28009	7.55	5
0	28010	7.55	3
0	28011	7.55	1
0	28012	7.55	1
0	28101	7.6	3
0	28102	7.6	5
0	28103	7.6	3
0	28104	7.6	5
0	28105	7.6	8
0	28106	7.6	5
0	28107	7.6	3
0	28108	7.6	5
0	28109	7.6	3
0	28110	7.6	1
0	28111	7.6	1
0	28112	7.6	3
0	28113	7.6	5
0	28114	7.6	3
0	28115	7.6	5
0	28116	7.6	8
0	28117	7.6	5
0	28118	7.6	3
0	28119	7.6	5
0	28120	7.6	3
0	28121	7.6	1
0	28122	7.6	1
0	28279	7.65	3
0	28280	7.65	5
0	28281	7.65	3
0	28282	7.65	5
0	28283	7.65	8
0	28284	7.65	5
0	28285	7.65	3
0	28286	7.65	5
0	28287	7.65	3
0	28288	7.65	1
0	28289	7.65	1
0	28383	7.7	3
0	28384	7.7	5
0	28385	7.7	3
0	28386	7.7	5
0	28387	7.7	8
0	28388	7.7	5
0	28389	7.7	3
0	28390	7.7	5
0	28391	7.7	3
0	28392	7.7	1
0	28393	7.7	1
0	28394	7.7	3
0	28395	7.7	5
0	28396	7.7	3
0	28397	7.7	5
0	28398	7.7	8
0	28399	7.7	5
0	28400	7.7	3
0	28401	7.7	5
0	28402	7.7	3
0	28403	7.7	1
0	28404	7.7	1
0	28763	7.75	3
0	28764	7.75	5
0	28765	7.75	3
0	28766	7.75	5
0	28767	7.75	8
0	28768	7.75	5
0	28769	7.75	3
0	28770	7.75	5
0	28771	7.75	3
0	28772	7.75	1
0	28773	7.75	1
0	28963	7.8	3
0	28964	7.8	5
0	28965	7.8	3
0	28966	7.8	5
0	28967	7.8	8
0	28968	7.8	5
0	28969	7.8	3
0	28970	7.8	5
0	28971	7.8	3
0	28972	7.8	1
0	28973	7.8	1
0	28974	7.8	3
0	28975	7.8	5
0	28976	7.8	3
0	28977	7.8	5
0	28978	7.8	8
0	28979	7.8	5
0	28980	7.8	3
0	28981	7.8	5
0	28982	7.8	3
0	28983	7.8	1
0	28984	7.8	1
0	29141	7.85	3
0	29142	7.85	5
0	29143	7.85	3
0	29144	7.85	5
0	29145	7.85	8
0	29146	7.85	5
0	29147	7.85	3
0	29148	7.85	5
0	29149	7.85	3
0	29150	7.85	1
0	29151	7.85	1
0	29410	7.9	3
0	29411	7.9	5
0	29412	7.9	3
0	29413	7.9	5
0	29414	7.9	8
0	29415	7.9	5
0	29416	7.9	3
0	29417	7.9	5
0	29418	7.9	3
0	29419	7.9	1
0	29420	7.9	1
0	29421	7.9	3
0	29422	7.9	5
0	29423	7.9	3
0	29424	7.9	5
0	29425	7.9	8
0	29426	7.9	5
0	29427	7.9	3
0	29428	7.9	5
0	29429	7.9	3
0	29430	7.9	1
0	29431	7.9	1
0	29550	7.95	3
0	29551	7.95	5
0	29552	7.95	3
0	29553	7.95	5
0	29554	7.95	8
0	29555	7.95	5
0	29556	7.95	3
0	29557	7.95	5
0	29558	7.95	3
0	29559	7.95	1
0	29560	7.95	1
0	29718	8	3
0	29719	8	5
0	29720	8	3
0	29721	8	5
0	29722	8	8
0	29723	8	5
0	29724	8	3
0	29725	8	5
0	29726	8	3
0	29727	8	1
0	29728	8	1
0	29729	8	3
0	29730	8	5
0	29731	8	3
0	29732	8	5
0	29733	8	8
0	29734	8	5
0	29735	8	3
0	29736	8	5
0	29737	8	3
0	29738	8	1
0	29739	8	1
0	29850	8.05	3
0	29851	8.05	5
0	29852	8.05	3
0	29853	8.05	5
0	29854	8.05	8
0	29855	8.05	5
0	29856	8.05	3
0	29857	8.05	5
0	29858	8.05	3
0	29859	8.05	1
0	29860	8.05	1
0	29960	8.1	3
0	29961	8.1	5
0	29962	8.1	3
0	29963	8.1	5
0	29964	8.1	8
0	29965	8.1	5
0	29966	8.1	3
0	29967	8.1	5
0	29968	8.1	3
0	29969	8.1	1
0	29970	8.1	1
0	29971	8.1	3
0	29972	8.1	5
0	29973	8.1	3
0	29974	8.1	5
0	29975	8.1	8
0	29976	8.1	5
0	29977	8.1	3
0	29978	8.1	5
0	29979	8.1	3
0	29980	8.1	1
0	29981	8.1	1
0	30105	8.15	3
0	30106	8.15	5
0	30107	8.15	3
0	30108	8.15	5
0	30109	8.15	8
0	30110	8.15	5
0	30111	8.15	3
0	30112	8.15	5
0	30113	8.15	3
0	30114	8.15	1
0	30115	8.15	1
0	30273	8.2	3
0	30274	8.2	5
0	30275	8.2	3
0	30276	8.2	5
0	30277	8.2	8
0	30278	8.2	5
0	30279	8.2	3
0	30280	8.2	5
0	30281	8.2	3
0	30282	8.2	1
0	30283	8.2	1
0	30284	8.2	3
0	30285	8.2	5
0	30286	8.2	3
0	30287	8.2	5
0	30288	8.2	8
0	30289	8.2	5
0	30290	8.2	3
0	30291	8.2	5
0	30292	8.2	3
0	30293	8.2	1
0	30294	8.2	1
0	30405	8.25	3
0	30406	8.25	5
0	30407	8.25	3
0	30408	8.25	5
0	30409	8.25	8
0	30410	8.25	5
0	30411	8.25	3
0	30412	8.25	5
0	30413	8.25	3
0	30414	8.25	1
0	30415	8.25	1
0	30750	8.3	3
0	30751	8.3	5
0	30752	8.3	3
0	30753	8.3	5
0	30754	8.3	8
0	30755	8.3	5
0	30756	8.3	3
0	30757	8.3	5
0	30758	8.3	3
0	30759	8.3	1
0	30760	8.3	1
0	30761	8.3	3
0	30762	8.3	5
0	30763	8.3	3
0	30764	8.3	5
0	30765	8.3	8
0	30766	8.3	5
0	30767	8.3	3
0	30768	8.3	5
0	30769	8.3	3
0	30770	8.3	1
0	30771	8.3	1
0	31050	8.35	3
0	31051	8.35	5
0	31052	8.35	3
0	31053	8.35	5
0	31054	8.35	8
0	31055	8.35	5
0	31056	8.35	3
0	31057	8.35	5
0	31058	8.35	3
0	31059	8.35	1
0	31060	8.35	1
0	31196	8.4	3
0	31197	8.4	5
0	31198	8.4	3
0	31199	8.4	5
0	31200	8.4	8
0	31201	8.4	5
0	31202	8.4	3
0	31203	8.4	5
0	31204	8.4	3
0	31205	8.4	1
0	31206	8.4	1
0	31207	8.4	3
0	31208	8.4	5
0	31209	8.4	3
0	31210	8.4	5
0	31211	8.4	8
0	31212	8.4	5
0	31213	8.4	3
0	31214	8.4	5
0	31215	8.4	3
0	31216	8.4	1
0	31217	8.4	1
0	31500	8.45	3
0	31501	8.45	5
0	31502	8.45	3
0	31503	8.45	5
0	31504	8.45	8
0	31505	8.45	5
0	31506	8.45	3
0	31507	8.45	5
0	31508	8.45	3
0	31509	8.45	1
0	31510	8.45	1
0	31666	8.5	3
0	31667	8.5	5
0	31668	8.5	3
0	31669	8.5	5
0	31670	8.5	8
0	31671	8.5	5
0	31672	8.5	3
0	31673	8.5	5
0	31674	8.5	3
0	31675	8.5	1
0	31676	8.5	1
0	31677	8.5	3
0	31678	8.5	5
0	31679	8.5	3
0	31680	8.5	5
0	31681	8.5	8
0	31682	8.5	5
0	31683	8.5	3
0	31684	8.5	5
0	31685	8.5	3
0	31686	8.5	1
0	31687	8.5	1
0	31888	8.55	3
0	31889	8.55	5
0	31890	8.55	3
0	31891	8.55	5
0	31892	8.55	8
0	31893	8.55	5
0	31894	8.55	3
0	31895	8.55	5
0	31896	8.55	3
0	31897	8.55	1
0	31898	8.55	1
0	31987	8.6	3
0	31988	8.6	5
0	31989	8.6	3
0	31990	8.6	5
0	31991	8.6	8
0	31992	8.6	5
0	31993	8.6	3
0	31994	8.6	5
0	31995	8.6	3
0	31996	8.6	1
0	31997	8.6	1
0	31998	8.6	3
0	31999	8.6	5
0	32000	8.6	3
0	32001	8.6	5
0	32002	8.6	8
0	32003	8.6	5
0	32004	8.6	3
0	32005	8.6	5
0	32006	8.6	3
0	32007	8.6	1
0	32008	8.6	1
0	32119	8.65	3
0	32120	8.65	5
0	32121	8.65	3
0	32122	8.65	5
0	32123	8.65	8
0	32124	8.65	5
0	32125	8.65	3
0	32126	8.65	5
0	32127	8.65	3
0	32128	8.65	1
0	32129	8.65	1
0	32246	8.7	3
0	32247	8.7	5
0	32248	8.7	3
0	32249	8.7	5
0	32250	8.7	8
0	32251	8.7	5
0	32252	8.7	3
0	32253	8.7	5
0	32254	8.7	3
0	32255	8.7	1
0	32256	8.7	1
0	32257	8.7	3
0	32258	8.7	5
0	32259	8.7	3
0	32260	8.7	5
0	32261	8.7	8
0	32262	8.7	5
0	32263	8.7	3
0	32264	8.7	5
0	32265	8.7	3
0	32266	8.7	1
0	32267	8.7	1
0	32447	8.75	3
0	32448	8.75	5
0	32449	8.75	3
0	32450	8.75	5
0	32451	8.75	8
0	32452	8.75	5
0	32453	8.75	3
0	32454	8.75	5
0	32455	8.75	3
0	32456	8.75	1
0	32457	8.75	1
0	32569	8.8	3
0	32570	8.8	5
0	32571	8.8	3
0	32572	8.8	5
0	32573	8.8	8
0	32574	8.8	5
0	32575	8.8	3
0	32576	8.8	5
0	32577	8.8	3
0	32578	8.8	1
0	32579	8.8	1
0	32580	8.8	3
0	32581	8.8	5
0	32582	8.8	3
0	32583	8.8	5
0	32584	8.8	8
0	32585	8.8	5
0	32586	8.8	3
0	32587	8.8	5
0	32588	8.8	3
0	32589	8.8	1
0	32590	8.8	1
0	32925	8.85	3
0	32926	8.85	5
0	32927	8.85	3
0	32928	8.85	5
0	32929	8.85	8
0	32930	8.85	5
0	32931	8.85	3
0	32932	8.85	5
0	32933	8.85	3
0	32934	8.85	1
0	32935	8.85	1
0	33178	8.9	3
0	33179	8.9	5
0	33180	8.9	3
0	33181	8.9	5
0	33182	8.9	8
0	33183	8.9	5
0	33184	8.9	3
0	33185	8.9	5
0	33186	8.9	3
0	33187	8.9	1
0	33188	8.9	1
0	33189	8.9	3
0	33190	8.9	5
0	33191	8.9	3
0	33192	8.9	5
0	33193	8.9	8
0	33194	8.9	5
0	33195	8.9	3
0	33196	8.9	5
0	33197	8.9	3
0	33198	8.9	1
0	33199	8.9	1
0	33373	8.95	3
0	33374	8.95	5
0	33375	8.95	3
0	33376	8.95	5
0	33377	8.95	8
0	33378	8.95	5
0	33379	8.95	3
0	33380	8.95	5
0	33381	8.95	3
0	33382	8.95	1
0	33383	8.95	1
0	33587	9	3
0	33588	9	5
0	33589	9	3
0	33590	9	5
0	33591	9	8
0	33592	9	5
0	33593	9	3
0	33594	9	5
0	33595	9	3
0	33596	9	1
0	33597	9	1
0	33598	9	3
0	33599	9	5
0	33600	9	3
0	33601	9	5
0	33602	9	8
0	33603	9	5
0	33604	9	3
0	33605	9	5
0	33606	9	3
0	33607	9	1
0	33608	9	1
0	33770	9.05	3
0	33771	9.05	5
0	33772	9.05	3
0	33773	9.05	5
0	33774	9.05	8
0	33775	9.05	5
0	33776	9.05	3
0	33777	9.05	5
0	33778	9.05	3
0	33779	9.05	1
0	33780	9.05	1
0	33949	9.1	3
0	33950	9.1	5
0	33951	9.1	3
0	33952	9.1	5
0	33953	9.1	8
0	33954	9.1	5
0	33955	9.1	3
0	33956	9.1	5
0	33957	9.1	3
0	33958	9.1	1
0	33959	9.1	1
0	33960	9.1	3
0	33961	9.1	5
0	33962	9.1	3
0	33963	9.1	5
0	33964	9.1	8
0	33965	9.1	5
0	33966	9.1	3
0	33967	9.1	5
0	33968	9.1	3
0	33969	9.1	1
0	33970	9.1	1
0	34094	9.15	3
0	34095	9.15	5
0	34096	9.15	3
0	34097	9.15	5
0	34098	9.15	8
0	34099	9.15	5
0	34100	9.15	3
0	34101	9.15	5
0	34102	9.15	3
0	34103	9.15	1
0	34104	9.15	1
0	34193	9.2	3
0	34194	9.2	5
0	34195	9.2	3
0	34196	9.2	5
0	34197	9.2	8
0	34198	9.2	5
0	34199	9.2	3
0	34200	9.2	5
0	34201	9.2	3
0	34202	9.2	1
0	34203	9.2	1
0	34204	9.2	3
0	34205	9.2	5
0	34206	9.2	3
0	34207	9.2	5
0	34208	9.2	8
0	34209	9.2	5
0	34210	9.2	3
0	34211	9.2	5
0	34212	9.2	3
0	34213	9.2	1
0	34214	9.2	1
0	34353	9.25	3
0	34354	9.25	5
0	34355	9.25	3
0	34356	9.25	5
0	34357	9.25	8
0	34358	9.25	5
0	34359	9.25	3
0	34360	9.25	5
0	34361	9.25	3
0	34362	9.25	1
0	34363	9.25	1
0	34503	9.3	3
0	34504	9.3	5
0	34505	9.3	3
0	34506	9.3	5
0	34507	9.3	8
0	34508	9.3	5
0	34509	9.3	3
0	34510	9.3	5
0	34511	9.3	3
0	34512	9.3	1
0	34513	9.3	1
0	34514	9.3	3
0	34515	9.3	5
0	34516	9.3	3
0	34517	9.3	5
0	34518	9.3	8
0	34519	9.3	5
0	34520	9.3	3
0	34521	9.3	5
0	34522	9.3	3
0	34523	9.3	1
0	34524	9.3	1
0	34658	9.35	3
0	34659	9.35	5
0	34660	9.35	3
0	34661	9.35	5
0	34662	9.35	8
0	34663	9.35	5
0	34664	9.35	3
0	34665	9.35	5
0	34666	9.35	3
0	34667	9.35	1
0	34668	9.35	1
0	34982	9.4	3
0	34983	9.4	5
0	34984	9.4	3
0	34985	9.4	5
0	34986	9.4	8
0	34987	9.4	5
0	34988	9.4	3
0	34989	9.4	5
0	34990	9.4	3
0	34991	9.4	1
0	34992	9.4	1
0	34993	9.4	3
0	34994	9.4	5
0	34995	9.4	3
0	34996	9.4	5
0	34997	9.4	8
0	34998	9.4	5
0	34999	9.4	3
0	35000	9.4	5
0	35001	9.4	3
0	35002	9.4	1
0	35003	9.4	1
0	35365	9.45	3
0	35366	9.45	5
0	35367	9.45	3
0	35368	9.45	5
0	35369	9.45	8
0	35370	9.45	5
0	35371	9.45	3
0	35372	9.45	5
0	35373	9.45	3
0	35374	9.45	1
0	35375	9.45	1
0	35611	9.5	3
0	35612	9.5	5
0	35613	9.5	3
0	35614	9.5	5
0	35615	9.5	8
0	35616	9.5	5
0	35617	9.5	3
0	35618	9.5	5
0	35619	9.5	3
0	35620	9.5	1
0	35621	9.5	1
0	35622	9.5	3
0	35623	9.5	5
0	35624	9.5	3
0	35625	9.5	5
0	35626	9.5	8
0	35627	9.5	5
0	35628	9.5	3
0	35629	9.5	5
0	35630	9.5	3
0	35631	9.5	1
0	35632	9.5	1
0	35852	9.55	3
0	35853	9.55	5
0	35854	9.55	3
0	35855	9.55	5
0	35856	9.55	8
0	35857	9.55	5
0	35858	9.55	3
0	35859	9.55	5
0	35860	9.55	3
0	35861	9.55	1
0	35862	9.55	1
0	36020	9.6	3
0	36021	9.6	5
0	36022	9.6	3
0	36023	9.6	5
0	36024	9.6	8
0	36025	9.6	5
0	36026	9.6	3
0	36027	9.6	5
0	36028	9.6	3
0	36029	9.6	1
0	36030	9.6	1
0	36031	9.6	3
0	36032	9.6	5
0	36033	9.6	3
0	36034	9.6	5
0	36035	9.6	8
0	36036	9.6	5
0	36037	9.6	3
0	36038	9.6	5
0	36039	9.6	3
0	36040	9.6	1
0	36041	9.6	1
0	36221	9.65	3
0	36222	9.65	5
0	36223	9.65	3
0	36224	9.65	5
0	36225	9.65	8
0	36226	9.65	5
0	36227	9.65	3
0	36228	9.65	5
0	36229	9.65	3
0	36230	9.65	1
0	36231	9.65	1
0	36320	9.7	3
0	36321	9.7	5
0	36322	9.7	3
0	36323	9.7	5
0	36324	9.7	8
0	36325	9.7	5
0	36326	9.7	3
0	36327	9.7	5
0	36328	9.7	3
0	36329	9.7	1
0	36330	9.7	1
0	36331	9.7	3
0	36332	9.7	5
0	36333	9.7	3
0	36334	9.7	5
0	36335	9.7	8
0	36336	9.7	5
0	36337	9.7	3
0	36338	9.7	5
0	36339	9.7	3
0	36340	9.7	1
0	36341	9.7	1
0	36475	9.75	3
0	36476	9.75	5
0	36477	9.75	3
0	36478	9.75	5
0	36479	9.75	8
0	36480	9.75	5
0	36481	9.75	3
0	36482	9.75	5
0	36483	9.75	3
0	36484	9.75	1
0	36485	9.75	1
0	36579	9.8	3
0	36580	9.8	5
0	36581	9.8	3
0	36582	9.8	5
0	36583	9.8	8
0	36584	9.8	5
0	36585	9.8	3
0	36586	9.8	5
0	36587	9.8	3
0	36588	9.8	1
0	36589	9.8	1
0	36590	9.8	3
0	36591	9.8	5
0	36592	9.8	3
0	36593	9.8	5
0	36594	9.8	8
0	36595	9.8	5
0	36596	9.8	3
0	36597	9.8	5
0	36598	9.8	3
0	36599	9.8	1
0	36600	9.8	1
0	36757	9.85	3
0	36758	9.85	5
0	36759	9.85	3
0	36760	9.85	5
0	36761	9.85	8
0	36762	9.85	5
0	36763	9.85	3
0	36764	9.85	5
0	36765	9.85	3
0	36766	9.85	1
0	36767	9.85	1
0	36896	9.9	3
0	36897	9.9	5
0	36898	9.9	3
0	36899	9.9	5
0	36900	9.9	8
0	36901	9.9	5
0	36902	9.9	3
0	36903	9.9	5
0	36904	9.9	3
0	36905	9.9	1
0	36906	9.9	1
0	36907	9.9	3
0	36908	9.9	5
0	36909	9.9	3
0	36910	9.9	5
0	36911	9.9	8
0	36912	9.9	5
0	36913	9.9	3
0	36914	9.9	5
0	36915	9.9	3
0	36916	9.9	1
0	36917	9.9	1
0	37196	9.95	3
0	37197	9.95	5
0	37198	9.95	3
0	37199	9.95	5
0	37200	9.95	8
0	37201	9.95	5
0	37202	9.95	3
0	37203	9.95	5
0	37204	9.95	3
0	37205	9.95	1
0	37206	9.95	1
0	37388	10	3
0	37389	10	5
0	37390	10	3
0	37391	10	5
0	37392	10	8
0	37393	10	5
0	37394	10	3
0	37395	10	5
0	37396	10	3
0	37397	10	1
0	37398	10	1
0	37399	10	3
0	37400	10	5
0	37401	10	3
0	37402	10	5
0	37403	10	8
0	37404	10	5
0	37405	10	3
0	37406	10	5
0	37407	10	3
0	37408	10	1
0	37409	10	1
0	37643	10.05	3
0	37644	10.05	5
0	37645	10.05	3
0	37646	10.05	5
0	37647	10.05	8
0	37648	10.05	5
0	37649	10.05	3
0	37650	10.05	5
0	37651	10.05	3
0	37652	10.05	1
0	37653	10.05	1
0	37923	10.1	3
0	37924	10.1	5
0	37925	10.1	3
0	37926	10.1	5
0	37927	10.1	8
0	37928	10.1	5
0	37929	10.1	3
0	37930	10.1	5
0	37931	10.1	3
0	37932	10.1	1
0	37933	10.1	1
0	37934	10.1	3
0	37935	10.1	5
0	37936	10.1	3
0	37937	10.1	5
0	37938	10.1	8
0	37939	10.1	5
0	37940	10.1	3
0	37941	10.1	5
0	37942	10.1	3
0	37943	10.1	1
0	37944	10.1	1
0	38242	10.15	3
0	38243	10.15	5
0	38244	10.15	3
0	38245	10.15	5
0	38246	10.15	8
0	38247	10.15	5
0	38248	10.15	3
0	38249	10.15	5
0	38250	10.15	3
0	38251	10.15	1
0	38252	10.15	1
0	38392	10.2	3
0	38393	10.2	5
0	38394	10.2	3
0	38395	10.2	5
0	38396	10.2	8
0	38397	10.2	5
0	38398	10.2	3
0	38399	10.2	5
0	38400	10.2	3
0	38401	10.2	1
0	38402	10.2	1
0	38403	10.2	3
0	38404	10.2	5
0	38405	10.2	3
0	38406	10.2	5
0	38407	10.2	8
0	38408	10.2	5
0	38409	10.2	3
0	38410	10.2	5
0	38411	10.2	3
0	38412	10.2	1
0	38413	10.2	1
0	38524	10.25	3
0	38525	10.25	5
0	38526	10.25	3
0	38527	10.25	5
0	38528	10.25	8
0	38529	10.25	5
0	38530	10.25	3
0	38531	10.25	5
0	38532	10.25	3
0	38533	10.25	1
0	38534	10.25	1
0	38646	10.3	3
0	38647	10.3	5
0	38648	10.3	3
0	38649	10.3	5
0	38650	10.3	8
0	38651	10.3	5
0	38652	10.3	3
0	38653	10.3	5
0	38654	10.3	3
0	38655	10.3	1
0	38656	10.3	1
0	38657	10.3	3
0	38658	10.3	5
0	38659	10.3	3
0	38660	10.3	5
0	38661	10.3	8
0	38662	10.3	5
0	38663	10.3	3
0	38664	10.3	5
0	38665	10.3	3
0	38666	10.3	1
0	38667	10.3	1
0	38778	10.35	3
0	38779	10.35	5
0	38780	10.35	3
0	38781	10.35	5
0	38782	10.35	8
0	38783	10.35	5
0	38784	10.35	3
0	38785	10.35	5
0	38786	10.35	3
0	38787	10.35	1
0	38788	10.35	1
0	38900	10.4	3
0	38901	10.4	5
0	38902	10.4	3
0	38903	10.4	5
0	38904	10.4	8
0	38905	10.4	5
0	38906	10.4	3
0	38907	10.4	5
0	38908	10.4	3
0	38909	10.4	1
0	38910	10.4	1
0	38911	10.4	3
0	38912	10.4	5
0	38913	10.4	3
0	38914	10.4	5
0	38915	10.4	8
0	38916	10.4	5
0	38917	10.4	3
0	38918	10.4	5
0	38919	10.4	3
0	38920	10.4	1
0	38921	10.4	1
0	39072	10.45	3
0	39073	10.45	5
0	39074	10.45	3
0	39075	10.45	5
0	39076	10.45	8
0	39077	10.45	5
0	39078	10.45	3
0	39079	10.45	5
0	39080	10.45	3
0	39081	10.45	1
0	39082	10.45	1
0	39337	10.5	3
0	39338	10.5	5
0	39339	10.5	3
0	39340	10.5	5
0	39341	10.5	8
0	39342	10.5	5
0	39343	10.5	3
0	39344	10.5	5
0	39345	10.5	3
0	39346	10.5	1
0	39347	10.5	1
0	39348	10.5	3
0	39349	10.5	5
0	39350	10.5	3
0	39351	10.5	5
0	39352	10.5	8
0	39353	10.5	5
0	39354	10.5	3
0	39355	10.5	5
0	39356	10.5	3
0	39357	10.5	1
0	39358	10.5	1
0	39559	10.55	3
0	39560	10.55	5
0	39561	10.55	3
0	39562	10.55	5
0	39563	10.55	8
0	39564	10.55	5
0	39565	10.55	3
0	39566	10.55	5
0	39567	10.55	3
0	39568	10.55	1
0	39569	10.55	1
0	39703	10.6	3
0	39704	10.6	5
0	39705	10.6	3
0	39706	10.6	5
0	39707	10.6	8
0	39708	10.6	5
0	39709	10.6	3
0	39710	10.6	5
0	39711	10.6	3
0	39712	10.6	1
0	39713	10.6	1
0	39714	10.6	3
0	39715	10.6	5
0	39716	10.6	3
0	39717	10.6	5
0	39718	10.6	8
0	39719	10.6	5
0	39720	10.6	3
0	39721	10.6	5
0	39722	10.6	3
0	39723	10.6	1
0	39724	10.6	1
0	39954	10.65	3
0	39955	10.65	5
0	39956	10.65	3
0	39957	10.65	5
0	39958	10.65	8
0	39959	10.65	5
0	39960	10.65	3
0	39961	10.65	5
0	39962	10.65	3
0	39963	10.65	1
0	39964	10.65	1
0	40087	10.7	3
0	40088	10.7	5
0	40089	10.7	3
0	40090	10.7	5
0	40091	10.7	8
0	40092	10.7	5
0	40093	10.7	3
0	40094	10.7	5
0	40095	10.7	3
0	40096	10.7	1
0	40097	10.7	1
0	40098	10.7	3
0	40099	10.7	5
0	40100	10.7	3
0	40101	10.7	5
0	40102	10.7	8
0	40103	10.7	5
0	40104	10.7	3
0	40105	10.7	5
0	40106	10.7	3
0	40107	10.7	1
0	40108	10.7	1
0	40265	10.75	3
0	40266	10.75	5
0	40267	10.75	3
0	40268	10.75	5
0	40269	10.75	8
0	40270	10.75	5
0	40271	10.75	3
0	40272	10.75	5
0	40273	10.75	3
0	40274	10.75	1
0	40275	10.75	1
0	40364	10.8	3
0	40365	10.8	5
0	40366	10.8	3
0	40367	10.8	5
0	40368	10.8	8
0	40369	10.8	5
0	40370	10.8	3
0	40371	10.8	5
0	40372	10.8	3
0	40373	10.8	1
0	40374	10.8	1
0	40375	10.8	3
0	40376	10.8	5
0	40377	10.8	3
0	40378	10.8	5
0	40379	10.8	8
0	40380	10.8	5
0	40381	10.8	3
0	40382	10.8	5
0	40383	10.8	3
0	40384	10.8	1
0	40385	10.8	1
0	40539	10.85	3
0	40540	10.85	5
0	40541	10.85	3
0	40542	10.85	5
0	40543	10.85	8
0	40544	10.85	5
0	40545	10.85	3
0	40546	10.85	5
0	40547	10.85	3
0	40548	10.85	1
0	40549	10.85	1
0	40643	10.9	3
0	40644	10.9	5
0	40645	10.9	3
0	40646	10.9	5
0	40647	10.9	8
0	40648	10.9	5
0	40649	10.9	3
0	40650	10.9	5
0	40651	10.9	3
0	40652	10.9	1
0	40653	10.9	1
0	40654	10.9	3
0	40655	10.9	5
0	40656	10.9	3
0	40657	10.9	5
0	40658	10.9	8
0	40659	10.9	5
0	40660	10.9	3
0	40661	10.9	5
0	40662	10.9	3
0	40663	10.9	1
0	40664	10.9	1
0	40798	10.95	3
0	40799	10.95	5
0	40800	10.95	3
0	40801	10.95	5
0	40802	10.95	8
0	40803	10.95	5
0	40804	10.95	3
0	40805	10.95	5
0	40806	10.95	3
0	40807	10.95	1
0	40808	10.95	1
0	40914	11	3
0	40915	11	5
0	40916	11	3
0	40917	11	5
0	40918	11	8
0	40919	11	5
0	40920	11	3
0	40921	11	5
0	40922	11	3
0	40923	11	1
0	40924	11	1
0	40925	11	3
0	40926	11	5
0	40927	11	3
0	40928	11	5
0	40929	11	8
0	40930	11	5
0	40931	11	3
0	40932	11	5
0	40933	11	3
0	40934	11	1
0	40935	11	1
0	41223	11.05	3
0	41224	11.05	5
0	41225	11.05	3
0	41226	11.05	5
0	41227	11.05	8
0	41228	11.05	5
0	41229	11.05	3
0	41230	11.05	5
0	41231	11.05	3
0	41232	11.05	1
0	41233	11.05	1
0	41464	11.1	3
0	41465	11.1	5
0	41466	11.1	3
0	41467	11.1	5
0	41468	11.1	8
0	41469	11.1	5
0	41470	11.1	3
0	41471	11.1	5
0	41472	11.1	3
0	41473	11.1	1
0	41474	11.1	1
0	41475	11.1	3
0	41476	11.1	5
0	41477	11.1	3
0	41478	11.1	5
0	41479	11.1	8
0	41480	11.1	5
0	41481	11.1	3
0	41482	11.1	5
0	41483	11.1	3
0	41484	11.1	1
0	41485	11.1	1
0	41693	11.15	3
0	41694	11.15	5
0	41695	11.15	3
0	41696	11.15	5
0	41697	11.15	8
0	41698	11.15	5
0	41699	11.15	3
0	41700	11.15	5
0	41701	11.15	3
0	41702	11.15	1
0	41703	11.15	1
0	41951	11.2	3
0	41952	11.2	5
0	41953	11.2	3
0	41954	11.2	5
0	41955	11.2	8
0	41956	11.2	5
0	41957	11.2	3
0	41958	11.2	5
0	41959	11.2	3
0	41960	11.2	1
0	41961	11.2	1
0	41962	11.2	3
0	41963	11.2	5
0	41964	11.2	3
0	41965	11.2	5
0	41966	11.2	8
0	41967	11.2	5
0	41968	11.2	3
0	41969	11.2	5
0	41970	11.2	3
0	41971	11.2	1
0	41972	11.2	1
0	42183	11.25	3
0	42184	11.25	5
0	42185	11.25	3
0	42186	11.25	5
0	42187	11.25	8
0	42188	11.25	5
0	42189	11.25	3
0	42190	11.25	5
0	42191	11.25	3
0	42192	11.25	1
0	42193	11.25	1
0	42333	11.3	3
0	42334	11.3	5
0	42335	11.3	3
0	42336	11.3	5
0	42337	11.3	8
0	42338	11.3	5
0	42339	11.3	3
0	42340	11.3	5
0	42341	11.3	3
0	42342	11.3	1
0	42343	11.3	1
0	42344	11.3	3
0	42345	11.3	5
0	42346	11.3	3
0	42347	11.3	5
0	42348	11.3	8
0	42349	11.3	5
0	42350	11.3	3
0	42351	11.3	5
0	42352	11.3	3
0	42353	11.3	1
0	42354	11.3	1
0	42465	11.35	3
0	42466	11.35	5
0	42467	11.35	3
0	42468	11.35	5
0	42469	11.35	8
0	42470	11.35	5
0	42471	11.35	3
0	42472	11.35	5
0	42473	11.35	3
0	42474	11.35	1
0	42475	11.35	1
0	42607	11.4	3
0	42608	11.4	5
0	42609	11.4	3
0	42610	11.4	5
0	42611	11.4	8
0	42612	11.4	5
0	42613	11.4	3
0	42614	11.4	5
0	42615	11.4	3
0	42616	11.4	1
0	42617	11.4	1
0	42618	11.4	3
0	42619	11.4	5
0	42620	11.4	3
0	42621	11.4	5
0	42622	11.4	8
0	42623	11.4	5
0	42624	11.4	3
0	42625	11.4	5
0	42626	11.4	3
0	42627	11.4	1
0	42628	11.4	1
0	42744	11.45	3
0	42745	11.45	5
0	42746	11.45	3
0	42747	11.45	5
0	42748	11.45	8
0	42749	11.45	5
0	42750	11.45	3
0	42751	11.45	5
0	42752	11.45	3
0	42753	11.45	1
0	42754	11.45	1
0	42866	11.5	3
0	42867	11.5	5
0	42868	11.5	3
0	42869	11.5	5
0	42870	11.5	8
0	42871	11.5	5
0	42872	11.5	3
0	42873	11.5	5
0	42874	11.5	3
0	42875	11.5	1
0	42876	11.5	1
0	42877	11.5	3
0	42878	11.5	5
0	42879	11.5	3
0	42880	11.5	5
0	42881	11.5	8
0	42882	11.5	5
0	42883	11.5	3
0	42884	11.5	5
0	42885	11.5	3
0	42886	11.5	1
0	42887	11.5	1
0	43049	11.55	3
0	43050	11.55	5
0	43051	11.55	3
0	43052	11.55	5
0	43053	11.55	8
0	43054	11.55	5
0	43055	11.55	3
0	43056	11.55	5
0	43057	11.55	3
0	43058	11.55	1
0	43059	11.55	1
0	43267	11.6	3
0	43268	11.6	5
0	43269	11.6	3
0	43270	11.6	5
0	43271	11.6	8
0	43272	11.6	5
0	43273	11.6	3
0	43274	11.6	5
0	43275	11.6	3
0	43276	11.6	1
0	43277	11.6	1
0	43278	11.6	3
0	43279	11.6	5
0	43280	11.6	3
0	43281	11.6	5
0	43282	11.6	8
0	43283	11.6	5
0	43284	11.6	3
0	43285	11.6	5
0	43286	11.6	3
0	43287	11.6	1
0	43288	11.6	1
0	43500	11.65	3
0	43501	11.65	5
0	43502	11.65	3
0	43503	11.65	5
0	43504	11.65	8
0	43505	11.65	5
0	43506	11.65	3
0	43507	11.65	5
0	43508	11.65	3
0	43509	11.65	1
0	43510	11.65	1
0	43694	11.7	3
0	43695	11.7	5
0	43696	11.7	3
0	43697	11.7	5
0	43698	11.7	8
0	43699	11.7	5
0	43700	11.7	3
0	43701	11.7	5
0	43702	11.7	3
0	43703	11.7	1
0	43704	11.7	1
0	43705	11.7	3
0	43706	11.7	5
0	43707	11.7	3
0	43708	11.7	5
0	43709	11.7	8
0	43710	11.7	5
0	43711	11.7	3
0	43712	11.7	5
0	43713	11.7	3
0	43714	11.7	1
0	43715	11.7	1
0	43980	11.75	3
0	43981	11.75	5
0	43982	11.75	3
0	43983	11.75	5
0	43984	11.75	8
0	43985	11.75	5
0	43986	11.75	3
0	43987	11.75	5
0	43988	11.75	3
0	43989	11.75	1
0	43990	11.75	1
0	44207	11.8	3
0	44208	11.8	5
0	44209	11.8	3
0	44210	11.8	5
0	44211	11.8	8
0	44212	11.8	5
0	44213	11.8	3
0	44214	11.8	5
0	44215	11.8	3
0	44216	11.8	1
0	44217	11.8	1
0	44218	11.8	3
0	44219	11.8	5
0	44220	11.8	3
0	44221	11.8	5
0	44222	11.8	8
0	44223	11.8	5
0	44224	11.8	3
0	44225	11.8	5
0	44226	11.8	3
0	44227	11.8	1
0	44228	11.8	1
0	44367	11.85	3
0	44368	11.85	5
0	44369	11.85	3
0	44370	11.85	5
0	44371	11.85	8
0	44372	11.85	5
0	44373	11.85	3
0	44374	11.85	5
0	44375	11.85	3
0	44376	11.85	1
0	44377	11.85	1
0	44466	11.9	3
0	44467	11.9	5
0	44468	11.9	3
0	44469	11.9	5
0	44470	11.9	8
0	44471	11.9	5
0	44472	11.9	3
0	44473	11.9	5
0	44474	11.9	3
0	44475	11.9	1
0	44476	11.9	1
0	44477	11.9	3
0	44478	11.9	5
0	44479	11.9	3
0	44480	11.9	5
0	44481	11.9	8
0	44482	11.9	5
0	44483	11.9	3
0	44484	11.9	5
0	44485	11.9	3
0	44486	11.9	1
0	44487	11.9	1
0	44621	11.95	3
0	44622	11.95	5
0	44623	11.95	3
0	44624	11.95	5
0	44625	11.95	8
0	44626	11.95	5
0	44627	11.95	3
0	44628	11.95	5
0	44629	11.95	3
0	44630	11.95	1
0	44631	11.95	1
0	44754	12	3
0	44755	12	5
0	44756	12	3
0	44757	12	5
0	44758	12	8
0	44759	12	5
0	44760	12	3
0	44761	12	5
0	44762	12	3
0	44763	12	1
0	44764	12	1
0	44765	12	3
0	44766	12	5
0	44767	12	3
0	44768	12	5
0	44769	12	8
0	44770	12	5
0	44771	12	3
0	44772	12	5
0	44773	12	3
0	44774	12	1
0	44775	12	1
0	44926	12.05	3
0	44927	12.05	5
0	44928	12.05	3
0	44929	12.05	5
0	44930	12.05	8
0	44931	12.05	5
0	44932	12.05	3
0	44933	12.05	5
0	44934	12.05	3
0	44935	12.05	1
0	44936	12.05	1
0	45145	12.1	3
0	45146	12.1	5
0	45147	12.1	3
0	45148	12.1	5
0	45149	12.1	8
0	45150	12.1	5
0	45151	12.1	3
0	45152	12.1	5
0	45153	12.1	3
0	45154	12.1	1
0	45155	12.1	1
0	45156	12.1	3
0	45157	12.1	5
0	45158	12.1	3
0	45159	12.1	5
0	45160	12.1	8
0	45161	12.1	5
0	45162	12.1	3
0	45163	12.1	5
0	45164	12.1	3
0	45165	12.1	1
0	45166	12.1	1
0	45370	12.15	3
0	45371	12.15	5
0	45372	12.15	3
0	45373	12.15	5
0	45374	12.15	8
0	45375	12.15	5
0	45376	12.15	3
0	45377	12.15	5
0	45378	12.15	3
0	45379	12.15	1
0	45380	12.15	1
0	45623	12.2	3
0	45624	12.2	5
0	45625	12.2	3
0	45626	12.2	5
0	45627	12.2	8
0	45628	12.2	5
0	45629	12.2	3
0	45630	12.2	5
0	45631	12.2	3
0	45632	12.2	1
0	45633	12.2	1
0	45634	12.2	3
0	45635	12.2	5
0	45636	12.2	3
0	45637	12.2	5
0	45638	12.2	8
0	45639	12.2	5
0	45640	12.2	3
0	45641	12.2	5
0	45642	12.2	3
0	45643	12.2	1
0	45644	12.2	1
0	45928	12.25	3
0	45929	12.25	5
0	45930	12.25	3
0	45931	12.25	5
0	45932	12.25	8
0	45933	12.25	5
0	45934	12.25	3
0	45935	12.25	5
0	45936	12.25	3
0	45937	12.25	1
0	45938	12.25	1
0	46179	12.3	3
0	46180	12.3	5
0	46181	12.3	3
0	46182	12.3	5
0	46183	12.3	8
0	46184	12.3	5
0	46185	12.3	3
0	46186	12.3	5
0	46187	12.3	3
0	46188	12.3	1
0	46189	12.3	1
0	46190	12.3	3
0	46191	12.3	5
0	46192	12.3	3
0	46193	12.3	5
0	46194	12.3	8
0	46195	12.3	5
0	46196	12.3	3
0	46197	12.3	5
0	46198	12.3	3
0	46199	12.3	1
0	46200	12.3	1
0	46388	12.35	3
0	46389	12.35	5
0	46390	12.35	3
0	46391	12.35	5
0	46392	12.35	8
0	46393	12.35	5
0	46394	12.35	3
0	46395	12.35	5
0	46396	12.35	3
0	46397	12.35	1
0	46398	12.35	1
0	46542	12.4	3
0	46543	12.4	5
0	46544	12.4	3
0	46545	12.4	5
0	46546	12.4	8
0	46547	12.4	5
0	46548	12.4	3
0	46549	12.4	5
0	46550	12.4	3
0	46551	12.4	1
0	46552	12.4	1
0	46553	12.4	3
0	46554	12.4	5
0	46555	12.4	3
0	46556	12.4	5
0	46557	12.4	8
0	46558	12.4	5
0	46559	12.4	3
0	46560	12.4	5
0	46561	12.4	3
0	46562	12.4	1
0	46563	12.4	1
0	46682	12.45	3
0	46683	12.45	5
0	46684	12.45	3
0	46685	12.45	5
0	46686	12.45	8
0	46687	12.45	5
0	46688	12.45	3
0	46689	12.45	5
0	46690	12.45	3
0	46691	12.45	1
0	46692	12.45	1
0	46786	12.5	3
0	46787	12.5	5
0	46788	12.5	3
0	46789	12.5	5
0	46790	12.5	8
0	46791	12.5	5
0	46792	12.5	3
0	46793	12.5	5
0	46794	12.5	3
0	46795	12.5	1
0	46796	12.5	1
0	46797	12.5	3
0	46798	12.5	5
0	46799	12.5	3
0	46800	12.5	5
0	46801	12.5	8
0	46802	12.5	5
0	46803	12.5	3
0	46804	12.5	5
0	46805	12.5	3
0	46806	12.5	1
0	46807	12.5	1
0	46923	12.55	3
0	46924	12.55	5
0	46925	12.55	3
0	46926	12.55	5
0	46927	12.55	8
0	46928	12.55	5
0	46929	12.55	3
0	46930	12.55	5
0	46931	12.55	3
0	46932	12.55	1
0	46933	12.55	1
0	47045	12.6	3
0	47046	12.6	5
0	47047	12.6	3
0	47048	12.6	5
0	47049	12.6	8
0	47050	12.6	5
0	47051	12.6	3
0	47052	12.6	5
0	47053	12.6	3
0	47054	12.6	1
0	47055	12.6	1
0	47056	12.6	3
0	47057	12.6	5
0	47058	12.6	3
0	47059	12.6	5
0	47060	12.6	8
0	47061	12.6	5
0	47062	12.6	3
0	47063	12.6	5
0	47064	12.6	3
0	47065	12.6	1
0	47066	12.6	1
0	47301	12.65	3
0	47302	12.65	5
0	47303	12.65	3
0	47304	12.65	5
0	47305	12.65	8
0	47306	12.65	5
0	47307	12.65	3
0	47308	12.65	5
0	47309	12.65	3
0	47310	12.65	1
0	47311	12.65	1
0	47529	12.7	3
0	47530	12.7	5
0	47531	12.7	3
0	47532	12.7	5
0	47533	12.7	8
0	47534	12.7	5
0	47535	12.7	3
0	47536	12.7	5
0	47537	12.7	3
0	47538	12.7	1
0	47539	12.7	1
0	47540	12.7	3
0	47541	12.7	5
0	47542	12.7	3
0	47543	12.7	5
0	47544	12.7	8
0	47545	12.7	5
0	47546	12.7	3
0	47547	12.7	5
0	47548	12.7	3
0	47549	12.7	1
0	47550	12.7	1
0	47857	12.75	3
0	47858	12.75	5
0	47859	12.75	3
0	47860	12.75	5
0	47861	12.75	8
0	47862	12.75	5
0	47863	12.75	3
0	47864	12.75	5
0	47865	12.75	3
0	47866	12.75	1
0	47867	12.75	1
0	48071	12.8	3
0	48072	12.8	5
0	48073	12.8	3
0	48074	12.8	5
0	48075	12.8	8
0	48076	12.8	5
0	48077	12.8	3
0	48078	12.8	5
0	48079	12.8	3
0	48080	12.8	1
0	48081	12.8	1
0	48082	12.8	3
0	48083	12.8	5
0	48084	12.8	3
0	48085	12.8	5
0	48086	12.8	8
0	48087	12.8	5
0	48088	12.8	3
0	48089	12.8	5
0	48090	12.8	3
0	48091	12.8	1
0	48092	12.8	1
0	48306	12.85	3
0	48307	12.85	5
0	48308	12.85	3
0	48309	12.85	5
0	48310	12.85	8
0	48311	12.85	5
0	48312	12.85	3
0	48313	12.85	5
0	48314	12.85	3
0	48315	12.85	1
0	48316	12.85	1
0	48487	12.9	3
0	48488	12.9	5
0	48489	12.9	3
0	48490	12.9	5
0	48491	12.9	8
0	48492	12.9	5
0	48493	12.9	3
0	48494	12.9	5
0	48495	12.9	3
0	48496	12.9	1
0	48497	12.9	1
0	48498	12.9	3
0	48499	12.9	5
0	48500	12.9	3
0	48501	12.9	5
0	48502	12.9	8
0	48503	12.9	5
0	48504	12.9	3
0	48505	12.9	5
0	48506	12.9	3
0	48507	12.9	1
0	48508	12.9	1
0	48642	12.95	3
0	48643	12.95	5
0	48644	12.95	3
0	48645	12.95	5
0	48646	12.95	8
0	48647	12.95	5
0	48648	12.95	3
0	48649	12.95	5
0	48650	12.95	3
0	48651	12.95	1
0	48652	12.95	1
0	48741	13	3
0	48742	13	5
0	48743	13	3
0	48744	13	5
0	48745	13	8
0	48746	13	5
0	48747	13	3
0	48748	13	5
0	48749	13	3
0	48750	13	1
0	48751	13	1
0	48752	13	3
0	48753	13	5
0	48754	13	3
0	48755	13	5
0	48756	13	8
0	48757	13	5
0	48758	13	3
0	48759	13	5
0	48760	13	3
0	48761	13	1
0	48762	13	1
0	48873	13.05	3
0	48874	13.05	5
0	48875	13.05	3
0	48876	13.05	5
0	48877	13.05	8
0	48878	13.05	5
0	48879	13.05	3
0	48880	13.05	5
0	48881	13.05	3
0	48882	13.05	1
0	48883	13.05	1
0	48983	13.1	3
0	48984	13.1	5
0	48985	13.1	3
0	48986	13.1	5
0	48987	13.1	8
0	48988	13.1	5
0	48989	13.1	3
0	48990	13.1	5
0	48991	13.1	3
0	48992	13.1	1
0	48993	13.1	1
0	48994	13.1	3
0	48995	13.1	5
0	48996	13.1	3
0	48997	13.1	5
0	48998	13.1	8
0	48999	13.1	5
0	49000	13.1	3
0	49001	13.1	5
0	49002	13.1	3
0	49003	13.1	1
0	49004	13.1	1
0	49133	13.15	3
0	49134	13.15	5
0	49135	13.15	3
0	49136	13.15	5
0	49137	13.15	8
0	49138	13.15	5
0	49139	13.15	3
0	49140	13.15	5
0	49141	13.15	3
0	49142	13.15	1
0	49143	13.15	1
0	49344	13.2	3
0	49345	13.2	5
0	49346	13.2	3
0	49347	13.2	5
0	49348	13.2	8
0	49349	13.2	5
0	49350	13.2	3
0	49351	13.2	5
0	49352	13.2	3
0	49353	13.2	1
0	49354	13.2	1
0	49355	13.2	3
0	49356	13.2	5
0	49357	13.2	3
0	49358	13.2	5
0	49359	13.2	8
0	49360	13.2	5
0	49361	13.2	3
0	49362	13.2	5
0	49363	13.2	3
0	49364	13.2	1
0	49365	13.2	1
0	49560	13.25	3
0	49561	13.25	5
0	49562	13.25	3
0	49563	13.25	5
0	49564	13.25	8
0	49565	13.25	5
0	49566	13.25	3
0	49567	13.25	5
0	49568	13.25	3
0	49569	13.25	1
0	49570	13.25	1
0	49785	13.3	3
0	49786	13.3	5
0	49787	13.3	3
0	49788	13.3	5
0	49789	13.3	8
0	49790	13.3	5
0	49791	13.3	3
0	49792	13.3	5
0	49793	13.3	3
0	49794	13.3	1
0	49795	13.3	1
0	49796	13.3	3
0	49797	13.3	5
0	49798	13.3	3
0	49799	13.3	5
0	49800	13.3	8
0	49801	13.3	5
0	49802	13.3	3
0	49803	13.3	5
0	49804	13.3	3
0	49805	13.3	1
0	49806	13.3	1
0	50048	13.35	3
0	50049	13.35	5
0	50050	13.35	3
0	50051	13.35	5
0	50052	13.35	8
0	50053	13.35	5
0	50054	13.35	3
0	50055	13.35	5
0	50056	13.35	3
0	50057	13.35	1
0	50058	13.35	1
0	50284	13.4	3
0	50285	13.4	5
0	50286	13.4	3
0	50287	13.4	5
0	50288	13.4	8
0	50289	13.4	5
0	50290	13.4	3
0	50291	13.4	5
0	50292	13.4	3
0	50293	13.4	1
0	50294	13.4	1
0	50295	13.4	3
0	50296	13.4	5
0	50297	13.4	3
0	50298	13.4	5
0	50299	13.4	8
0	50300	13.4	5
0	50301	13.4	3
0	50302	13.4	5
0	50303	13.4	3
0	50304	13.4	1
0	50305	13.4	1
0	50490	13.45	3
0	50491	13.45	5
0	50492	13.45	3
0	50493	13.45	5
0	50494	13.45	8
0	50495	13.45	5
0	50496	13.45	3
0	50497	13.45	5
0	50498	13.45	3
0	50499	13.45	1
0	50500	13.45	1
0	50589	13.5	3
0	50590	13.5	5
0	50591	13.5	3
0	50592	13.5	5
0	50593	13.5	8
0	50594	13.5	5
0	50595	13.5	3
0	50596	13.5	5
0	50597	13.5	3
0	50598	13.5	1
0	50599	13.5	1
0	50600	13.5	3
0	50601	13.5	5
0	50602	13.5	3
0	50603	13.5	5
0	50604	13.5	8
0	50605	13.5	5
0	50606	13.5	3
0	50607	13.5	5
0	50608	13.5	3
0	50609	13.5	1
0	50610	13.5	1
0	50721	13.55	3
0	50722	13.55	5
0	50723	13.55	3
0	50724	13.55	5
0	50725	13.55	8
0	50726	13.55	5
0	50727	13.55	3
0	50728	13.55	5
0	50729	13.55	3
0	50730	13.55	1
0	50731	13.55	1
0	50820	13.6	3
0	50821	13.6	5
0	50822	13.6	3
0	50823	13.6	5
0	50824	13.6	8
0	50825	13.6	5
0	50826	13.6	3
0	50827	13.6	5
0	50828	13.6	3
0	50829	13.6	1
0	50830	13.6	1
0	50831	13.6	3
0	50832	13.6	5
0	50833	13.6	3
0	50834	13.6	5
0	50835	13.6	8
0	50836	13.6	5
0	50837	13.6	3
0	50838	13.6	5
0	50839	13.6	3
0	50840	13.6	1
0	50841	13.6	1
0	50975	13.65	3
0	50976	13.65	5
0	50977	13.65	3
0	50978	13.65	5
0	50979	13.65	8
0	50980	13.65	5
0	50981	13.65	3
0	50982	13.65	5
0	50983	13.65	3
0	50984	13.65	1
0	50985	13.65	1
0	51097	13.7	3
0	51098	13.7	5
0	51099	13.7	3
0	51100	13.7	5
0	51101	13.7	8
0	51102	13.7	5
0	51103	13.7	3
0	51104	13.7	5
0	51105	13.7	3
0	51106	13.7	1
0	51107	13.7	1
0	51108	13.7	3
0	51109	13.7	5
0	51110	13.7	3
0	51111	13.7	5
0	51112	13.7	8
0	51113	13.7	5
0	51114	13.7	3
0	51115	13.7	5
0	51116	13.7	3
0	51117	13.7	1
0	51118	13.7	1
0	51346	13.75	3
0	51347	13.75	5
0	51348	13.75	3
0	51349	13.75	5
0	51350	13.75	8
0	51351	13.75	5
0	51352	13.75	3
0	51353	13.75	5
0	51354	13.75	3
0	51355	13.75	1
0	51356	13.75	1
0	51608	13.8	3
0	51609	13.8	5
0	51610	13.8	3
0	51611	13.8	5
0	51612	13.8	8
0	51613	13.8	5
0	51614	13.8	3
0	51615	13.8	5
0	51616	13.8	3
0	51617	13.8	1
0	51618	13.8	1
0	51619	13.8	3
0	51620	13.8	5
0	51621	13.8	3
0	51622	13.8	5
0	51623	13.8	8
0	51624	13.8	5
0	51625	13.8	3
0	51626	13.8	5
0	51627	13.8	3
0	51628	13.8	1
0	51629	13.8	1
0	51896	13.85	3
0	51897	13.85	5
0	51898	13.85	3
0	51899	13.85	5
0	51900	13.85	8
0	51901	13.85	5
0	51902	13.85	3
0	51903	13.85	5
0	51904	13.85	3
0	51905	13.85	1
0	51906	13.85	1
0	52074	13.9	3
0	52075	13.9	5
0	52076	13.9	3
0	52077	13.9	5
0	52078	13.9	8
0	52079	13.9	5
0	52080	13.9	3
0	52081	13.9	5
0	52082	13.9	3
0	52083	13.9	1
0	52084	13.9	1
0	52085	13.9	3
0	52086	13.9	5
0	52087	13.9	3
0	52088	13.9	5
0	52089	13.9	8
0	52090	13.9	5
0	52091	13.9	3
0	52092	13.9	5
0	52093	13.9	3
0	52094	13.9	1
0	52095	13.9	1
0	52313	13.95	3
0	52314	13.95	5
0	52315	13.95	3
0	52316	13.95	5
0	52317	13.95	8
0	52318	13.95	5
0	52319	13.95	3
0	52320	13.95	5
0	52321	13.95	3
0	52322	13.95	1
0	52323	13.95	1
0	52521	14	3
0	52522	14	5
0	52523	14	3
0	52524	14	5
0	52525	14	8
0	52526	14	5
0	52527	14	3
0	52528	14	5
0	52529	14	3
0	52530	14	1
0	52531	14	1
0	52532	14	3
0	52533	14	5
0	52534	14	3
0	52535	14	5
0	52536	14	8
0	52537	14	5
0	52538	14	3
0	52539	14	5
0	52540	14	3
0	52541	14	1
0	52542	14	1
0	52653	14.05	3
0	52654	14.05	5
0	52655	14.05	3
0	52656	14.05	5
0	52657	14.05	8
0	52658	14.05	5
0	52659	14.05	3
0	52660	14.05	5
0	52661	14.05	3
0	52662	14.05	1
0	52663	14.05	1
0	52786	14.1	3
0	52787	14.1	5
0	52788	14.1	3
0	52789	14.1	5
0	52790	14.1	8
0	52791	14.1	5
0	52792	14.1	3
0	52793	14.1	5
0	52794	14.1	3
0	52795	14.1	1
0	52796	14.1	1
0	52797	14.1	3
0	52798	14.1	5
0	52799	14.1	3
0	52800	14.1	5
0	52801	14.1	8
0	52802	14.1	5
0	52803	14.1	3
0	52804	14.1	5
0	52805	14.1	3
0	52806	14.1	1
0	52807	14.1	1
0	52954	14.15	3
0	52955	14.15	5
0	52956	14.15	3
0	52957	14.15	5
0	52958	14.15	8
0	52959	14.15	5
0	52960	14.15	3
0	52961	14.15	5
0	52962	14.15	3
0	52963	14.15	1
0	52964	14.15	1
0	53076	14.2	3
0	53077	14.2	5
0	53078	14.2	3
0	53079	14.2	5
0	53080	14.2	8
0	53081	14.2	5
0	53082	14.2	3
0	53083	14.2	5
0	53084	14.2	3
0	53085	14.2	1
0	53086	14.2	1
0	53087	14.2	3
0	53088	14.2	5
0	53089	14.2	3
0	53090	14.2	5
0	53091	14.2	8
0	53092	14.2	5
0	53093	14.2	3
0	53094	14.2	5
0	53095	14.2	3
0	53096	14.2	1
0	53097	14.2	1
0	53231	14.25	3
0	53232	14.25	5
0	53233	14.25	3
0	53234	14.25	5
0	53235	14.25	8
0	53236	14.25	5
0	53237	14.25	3
0	53238	14.25	5
0	53239	14.25	3
0	53240	14.25	1
0	53241	14.25	1
0	53402	14.3	3
0	53403	14.3	5
0	53404	14.3	3
0	53405	14.3	5
0	53406	14.3	8
0	53407	14.3	5
0	53408	14.3	3
0	53409	14.3	5
0	53410	14.3	3
0	53411	14.3	1
0	53412	14.3	1
0	53413	14.3	3
0	53414	14.3	5
0	53415	14.3	3
0	53416	14.3	5
0	53417	14.3	8
0	53418	14.3	5
0	53419	14.3	3
0	53420	14.3	5
0	53421	14.3	3
0	53422	14.3	1
0	53423	14.3	1
0	53700	14.35	3
0	53701	14.35	5
0	53702	14.35	3
0	53703	14.35	5
0	53704	14.35	8
0	53705	14.35	5
0	53706	14.35	3
0	53707	14.35	5
0	53708	14.35	3
0	53709	14.35	1
0	53710	14.35	1
0	53938	14.4	3
0	53939	14.4	5
0	53940	14.4	3
0	53941	14.4	5
0	53942	14.4	8
0	53943	14.4	5
0	53944	14.4	3
0	53945	14.4	5
0	53946	14.4	3
0	53947	14.4	1
0	53948	14.4	1
0	53949	14.4	3
0	53950	14.4	5
0	53951	14.4	3
0	53952	14.4	5
0	53953	14.4	8
0	53954	14.4	5
0	53955	14.4	3
0	53956	14.4	5
0	53957	14.4	3
0	53958	14.4	1
0	53959	14.4	1
0	54118	14.45	3
0	54119	14.45	5
0	54120	14.45	3
0	54121	14.45	5
0	54122	14.45	8
0	54123	14.45	5
0	54124	14.45	3
0	54125	14.45	5
0	54126	14.45	3
0	54127	14.45	1
0	54128	14.45	1
0	54385	14.5	3
0	54386	14.5	5
0	54387	14.5	3
0	54388	14.5	5
0	54389	14.5	8
0	54390	14.5	5
0	54391	14.5	3
0	54392	14.5	5
0	54393	14.5	3
0	54394	14.5	1
0	54395	14.5	1
0	54396	14.5	3
0	54397	14.5	5
0	54398	14.5	3
0	54399	14.5	5
0	54400	14.5	8
0	54401	14.5	5
0	54402	14.5	3
0	54403	14.5	5
0	54404	14.5	3
0	54405	14.5	1
0	54406	14.5	1
0	54681	14.55	3
0	54682	14.55	5
0	54683	14.55	3
0	54684	14.55	5
0	54685	14.55	8
0	54686	14.55	5
0	54687	14.55	3
0	54688	14.55	5
0	54689	14.55	3
0	54690	14.55	1
0	54691	14.55	1
0	54780	14.6	3
0	54781	14.6	5
0	54782	14.6	3
0	54783	14.6	5
0	54784	14.6	8
0	54785	14.6	5
0	54786	14.6	3
0	54787	14.6	5
0	54788	14.6	3
0	54789	14.6	1
0	54790	14.6	1
0	54791	14.6	3
0	54792	14.6	5
0	54793	14.6	3
0	54794	14.6	5
0	54795	14.6	8
0	54796	14.6	5
0	54797	14.6	3
0	54798	14.6	5
0	54799	14.6	3
0	54800	14.6	1
0	54801	14.6	1
0	54935	14.65	3
0	54936	14.65	5
0	54937	14.65	3
0	54938	14.65	5
0	54939	14.65	8
0	54940	14.65	5
0	54941	14.65	3
0	54942	14.65	5
0	54943	14.65	3
0	54944	14.65	1
0	54945	14.65	1
0	55062	14.7	3
0	55063	14.7	5
0	55064	14.7	3
0	55065	14.7	5
0	55066	14.7	8
0	55067	14.7	5
0	55068	14.7	3
0	55069	14.7	5
0	55070	14.7	3
0	55071	14.7	1
0	55072	14.7	1
0	55073	14.7	3
0	55074	14.7	5
0	55075	14.7	3
0	55076	14.7	5
0	55077	14.7	8
0	55078	14.7	5
0	55079	14.7	3
0	55080	14.7	5
0	55081	14.7	3
0	55082	14.7	1
0	55083	14.7	1
0	55217	14.75	3
0	55218	14.75	5
0	55219	14.75	3
0	55220	14.75	5
0	55221	14.75	8
0	55222	14.75	5
0	55223	14.75	3
0	55224	14.75	5
0	55225	14.75	3
0	55226	14.75	1
0	55227	14.75	1
0	55362	14.8	3
0	55363	14.8	5
0	55364	14.8	3
0	55365	14.8	5
0	55366	14.8	8
0	55367	14.8	5
0	55368	14.8	3
0	55369	14.8	5
0	55370	14.8	3
0	55371	14.8	1
0	55372	14.8	1
0	55373	14.8	3
0	55374	14.8	5
0	55375	14.8	3
0	55376	14.8	5
0	55377	14.8	8
0	55378	14.8	5
0	55379	14.8	3
0	55380	14.8	5
0	55381	14.8	3
0	55382	14.8	1
0	55383	14.8	1
0	55540	14.85	3
0	55541	14.85	5
0	55542	14.85	3
0	55543	14.85	5
0	55544	14.85	8
0	55545	14.85	5
0	55546	14.85	3
0	55547	14.85	5
0	55548	14.85	3
0	55549	14.85	1
0	55550	14.85	1
0	55759	14.9	3
0	55760	14.9	5
0	55761	14.9	3
0	55762	14.9	5
0	55763	14.9	8
0	55764	14.9	5
0	55765	14.9	3
0	55766	14.9	5
0	55767	14.9	3
0	55768	14.9	1
0	55769	14.9	1
0	55770	14.9	3
0	55771	14.9	5
0	55772	14.9	3
0	55773	14.9	5
0	55774	14.9	8
0	55775	14.9	5
0	55776	14.9	3
0	55777	14.9	5
0	55778	14.9	3
0	55779	14.9	1
0	55780	14.9	1
0	56000	14.95	3
0	56001	14.95	5
0	56002	14.95	3
0	56003	14.95	5
0	56004	14.95	8
0	56005	14.95	5
0	56006	14.95	3
0	56007	14.95	5
0	56008	14.95	3
0	56009	14.95	1
0	56010	14.95	1
0	56166	15	3
0	56167	15	5
0	56168	15	3
0	56169	15	5
0	56170	15	8
0	56171	15	5
0	56172	15	3
0	56173	15	5
0	56174	15	3
0	56175	15	1
0	56176	15	1
0	56177	15	3
0	56178	15	5
0	56179	15	3
0	56180	15	5
0	56181	15	8
0	56182	15	5
0	56183	15	3
0	56184	15	5
0	56185	15	3
0	56186	15	1
0	56187	15	1
0	56432	15.05	3
0	56433	15.05	5
0	56434	15.05	3
0	56435	15.05	5
0	56436	15.05	8
0	56437	15.05	5
0	56438	15.05	3
0	56439	15.05	5
0	56440	15.05	3
0	56441	15.05	1
0	56442	15.05	1
0	56634	15.1	3
0	56635	15.1	5
0	56636	15.1	3
0	56637	15.1	5
0	56638	15.1	8
0	56639	15.1	5
0	56640	15.1	3
0	56641	15.1	5
0	56642	15.1	3
0	56643	15.1	1
0	56644	15.1	1
0	56645	15.1	3
0	56646	15.1	5
0	56647	15.1	3
0	56648	15.1	5
0	56649	15.1	8
0	56650	15.1	5
0	56651	15.1	3
0	56652	15.1	5
0	56653	15.1	3
0	56654	15.1	1
0	56655	15.1	1
0	56779	15.15	3
0	56780	15.15	5
0	56781	15.15	3
0	56782	15.15	5
0	56783	15.15	8
0	56784	15.15	5
0	56785	15.15	3
0	56786	15.15	5
0	56787	15.15	3
0	56788	15.15	1
0	56789	15.15	1
0	56901	15.2	3
0	56902	15.2	5
0	56903	15.2	3
0	56904	15.2	5
0	56905	15.2	8
0	56906	15.2	5
0	56907	15.2	3
0	56908	15.2	5
0	56909	15.2	3
0	56910	15.2	1
0	56911	15.2	1
0	56912	15.2	3
0	56913	15.2	5
0	56914	15.2	3
0	56915	15.2	5
0	56916	15.2	8
0	56917	15.2	5
0	56918	15.2	3
0	56919	15.2	5
0	56920	15.2	3
0	56921	15.2	1
0	56922	15.2	1
0	57079	15.25	3
0	57080	15.25	5
0	57081	15.25	3
0	57082	15.25	5
0	57083	15.25	8
0	57084	15.25	5
0	57085	15.25	3
0	57086	15.25	5
0	57087	15.25	3
0	57088	15.25	1
0	57089	15.25	1
0	57235	15.3	3
0	57236	15.3	5
0	57237	15.3	3
0	57238	15.3	5
0	57239	15.3	8
0	57240	15.3	5
0	57241	15.3	3
0	57242	15.3	5
0	57243	15.3	3
0	57244	15.3	1
0	57245	15.3	1
0	57246	15.3	3
0	57247	15.3	5
0	57248	15.3	3
0	57249	15.3	5
0	57250	15.3	8
0	57251	15.3	5
0	57252	15.3	3
0	57253	15.3	5
0	57254	15.3	3
0	57255	15.3	1
0	57256	15.3	1
0	57453	15.35	3
0	57454	15.35	5
0	57455	15.35	3
0	57456	15.35	5
0	57457	15.35	8
0	57458	15.35	5
0	57459	15.35	3
0	57460	15.35	5
0	57461	15.35	3
0	57462	15.35	1
0	57463	15.35	1
0	57580	15.4	3
0	57581	15.4	5
0	57582	15.4	3
0	57583	15.4	5
0	57584	15.4	8
0	57585	15.4	5
0	57586	15.4	3
0	57587	15.4	5
0	57588	15.4	3
0	57589	15.4	1
0	57590	15.4	1
0	57591	15.4	3
0	57592	15.4	5
0	57593	15.4	3
0	57594	15.4	5
0	57595	15.4	8
0	57596	15.4	5
0	57597	15.4	3
0	57598	15.4	5
0	57599	15.4	3
0	57600	15.4	1
0	57601	15.4	1
0	57780	15.45	3
0	57781	15.45	5
0	57782	15.45	3
0	57783	15.45	5
0	57784	15.45	8
0	57785	15.45	5
0	57786	15.45	3
0	57787	15.45	5
0	57788	15.45	3
0	57789	15.45	1
0	57790	15.45	1
0	58022	15.5	3
0	58023	15.5	5
0	58024	15.5	3
0	58025	15.5	5
0	58026	15.5	8
0	58027	15.5	5
0	58028	15.5	3
0	58029	15.5	5
0	58030	15.5	3
0	58031	15.5	1
0	58032	15.5	1
0	58033	15.5	3
0	58034	15.5	5
0	58035	15.5	3
0	58036	15.5	5
0	58037	15.5	8
0	58038	15.5	5
0	58039	15.5	3
0	58040	15.5	5
0	58041	15.5	3
0	58042	15.5	1
0	58043	15.5	1
0	58185	15.55	3
0	58186	15.55	5
0	58187	15.55	3
0	58188	15.55	5
0	58189	15.55	8
0	58190	15.55	5
0	58191	15.55	3
0	58192	15.55	5
0	58193	15.55	3
0	58194	15.55	1
0	58195	15.55	1
0	58388	15.6	3
0	58389	15.6	5
0	58390	15.6	3
0	58391	15.6	5
0	58392	15.6	8
0	58393	15.6	5
0	58394	15.6	3
0	58395	15.6	5
0	58396	15.6	3
0	58397	15.6	1
0	58398	15.6	1
0	58399	15.6	3
0	58400	15.6	5
0	58401	15.6	3
0	58402	15.6	5
0	58403	15.6	8
0	58404	15.6	5
0	58405	15.6	3
0	58406	15.6	5
0	58407	15.6	3
0	58408	15.6	1
0	58409	15.6	1
0	58614	15.65	3
0	58615	15.65	5
0	58616	15.65	3
0	58617	15.65	5
0	58618	15.65	8
0	58619	15.65	5
0	58620	15.65	3
0	58621	15.65	5
0	58622	15.65	3
0	58623	15.65	1
0	58624	15.65	1
0	58713	15.7	3
0	58714	15.7	5
0	58715	15.7	3
0	58716	15.7	5
0	58717	15.7	8
0	58718	15.7	5
0	58719	15.7	3
0	58720	15.7	5
0	58721	15.7	3
0	58722	15.7	1
0	58723	15.7	1
0	58724	15.7	3
0	58725	15.7	5
0	58726	15.7	3
0	58727	15.7	5
0	58728	15.7	8
0	58729	15.7	5
0	58730	15.7	3
0	58731	15.7	5
0	58732	15.7	3
0	58733	15.7	1
0	58734	15.7	1
0	58885	15.75	3
0	58886	15.75	5
0	58887	15.75	3
0	58888	15.75	5
0	58889	15.75	8
0	58890	15.75	5
0	58891	15.75	3
0	58892	15.75	5
0	58893	15.75	3
0	58894	15.75	1
0	58895	15.75	1
0	59007	15.8	3
0	59008	15.8	5
0	59009	15.8	3
0	59010	15.8	5
0	59011	15.8	8
0	59012	15.8	5
0	59013	15.8	3
0	59014	15.8	5
0	59015	15.8	3
0	59016	15.8	1
0	59017	15.8	1
0	59018	15.8	3
0	59019	15.8	5
0	59020	15.8	3
0	59021	15.8	5
0	59022	15.8	8
0	59023	15.8	5
0	59024	15.8	3
0	59025	15.8	5
0	59026	15.8	3
0	59027	15.8	1
0	59028	15.8	1
0	59139	15.85	3
0	59140	15.85	5
0	59141	15.85	3
0	59142	15.85	5
0	59143	15.85	8
0	59144	15.85	5
0	59145	15.85	3
0	59146	15.85	5
0	59147	15.85	3
0	59148	15.85	1
0	59149	15.85	1
0	59271	15.9	3
0	59272	15.9	5
0	59273	15.9	3
0	59274	15.9	5
0	59275	15.9	8
0	59276	15.9	5
0	59277	15.9	3
0	59278	15.9	5
0	59279	15.9	3
0	59280	15.9	1
0	59281	15.9	1
0	59282	15.9	3
0	59283	15.9	5
0	59284	15.9	3
0	59285	15.9	5
0	59286	15.9	8
0	59287	15.9	5
0	59288	15.9	3
0	59289	15.9	5
0	59290	15.9	3
0	59291	15.9	1
0	59292	15.9	1
0	59487	15.95	3
0	59488	15.95	5
0	59489	15.95	3
0	59490	15.95	5
0	59491	15.95	8
0	59492	15.95	5
0	59493	15.95	3
0	59494	15.95	5
0	59495	15.95	3
0	59496	15.95	1
0	59497	15.95	1
0	59678	16	3
0	59679	16	5
0	59680	16	3
0	59681	16	5
0	59682	16	8
0	59683	16	5
0	59684	16	3
0	59685	16	5
0	59686	16	3
0	59687	16	1
0	59688	16	1
0	59689	16	3
0	59690	16	5
0	59691	16	3
0	59692	16	5
0	59693	16	8
0	59694	16	5
0	59695	16	3
0	59696	16	5
0	59697	16	3
0	59698	16	1
0	59699	16	1
0	59912	16.05	3
0	59913	16.05	5
0	59914	16.05	3
0	59915	16.05	5
0	59916	16.05	8
0	59917	16.05	5
0	59918	16.05	3
0	59919	16.05	5
0	59920	16.05	3
0	59921	16.05	1
0	59922	16.05	1
0	60208	16.1	3
0	60209	16.1	5
0	60210	16.1	3
0	60211	16.1	5
0	60212	16.1	8
0	60213	16.1	5
0	60214	16.1	3
0	60215	16.1	5
0	60216	16.1	3
0	60217	16.1	1
0	60218	16.1	1
0	60219	16.1	3
0	60220	16.1	5
0	60221	16.1	3
0	60222	16.1	5
0	60223	16.1	8
0	60224	16.1	5
0	60225	16.1	3
0	60226	16.1	5
0	60227	16.1	3
0	60228	16.1	1
0	60229	16.1	1
0	60423	16.15	3
0	60424	16.15	5
0	60425	16.15	3
0	60426	16.15	5
0	60427	16.15	8
0	60428	16.15	5
0	60429	16.15	3
0	60430	16.15	5
0	60431	16.15	3
0	60432	16.15	1
[...]
3	297815	76.433626728067	208116
3	298354	76.58396899642	208257
3	298373	76.59780899642	208398
3	298532	76.61164899642	208539
3	298619	76.63396899642	208680
3	299015	76.733626728067	208821
3	299033	76.747466728067	208962
3	299689	76.933626728067	209103
3	299708	76.947466728067	209244
3	299830	76.961306728067	209385
3	299844	76.975146728067	209526
3	299892	76.988986728067	209667
3	300494	77.138456785734	209808
3	301021	77.283626728067	209949
3	301501	77.433626728067	210090
3	301644	77.483626728067	210231
3	301990	77.583626728067	210372
3	302009	77.597466728067	210513
3	303055	77.883626728067	210654
3	303749	78.083626728067	210795
3	303950	78.133626728067	210936
3	303969	78.147466728067	211077
3	304396	78.233626728067	211218
3	304444	78.247466728067	211359
3	304454	78.248272534095	211500
3	304464	78.248426728067	211641
3	304602	78.261306728067	211782
3	304612	78.262112534095	211923
3	304675	78.275952534095	212064
3	304832	78.303632534095	212205
3	307284	78.983626728067	212346
3	307294	78.98396899642	212487
3	307634	79.083626728067	212628
3	307648	79.097466728067	212769
3	307831	79.111306728067	212910
3	307919	79.125146728067	213051
3	307959	79.136059262162	213192
3	307978	79.149899262162	213333
3	308104	79.163739262162	213474
3	308387	79.233626728067	213615
3	308785	79.303066728067	213756
3	308843	79.316906728067	213897
3	308912	79.330746728067	214038
3	308930	79.333626728067	214179
3	308976	79.347466728067	214320
3	308986	79.348426728067	214461
3	309118	79.362266728067	214602
3	309186	79.376106728067	214743
3	309205	79.389946728067	214884
3	309364	79.403786728067	215025
3	309796	79.533626728067	215166
3	311092	79.898426728067	215307
3	311776	80.08396899642	215448
3	312129	80.183626728067	215589
3	312148	80.197466728067	215730
3	312307	80.211306728067	215871
3	312379	80.225146728067	216012
3	312429	80.236059262162	216153
3	312448	80.238986728067	216294
3	312467	80.248426728067	216435
3	312478	80.249899262162	216576
3	312612	80.262266728067	216717
3	312623	80.263739262162	216858
3	312725	80.276106728067	216999
3	312736	80.277579262162	217140
3	312772	80.289946728067	217281
3	312925	80.303786728067	217422
3	312967	80.333626728067	217563
3	313456	80.448426728067	217704
3	313458	80.448426728067	217845
3	315199	80.933626728067	217986
3	316507	81.283626728067	218127
3	316526	81.297466728067	218268
3	316725	81.333626728067	218409
3	317073	81.433626728067	218550
3	317084	81.43396899642	218691
3	317111	81.44780899642	218832
3	317314	81.498831588182	218973
3	317471	81.512671588182	219114
3	317560	81.548272534095	219255
3	317567	81.548366529761	219396
3	319490	82.098366529761	219537
3	319911	82.183626728067	219678
3	319938	82.197466728067	219819
3	320094	82.211306728067	219960
3	320845	82.433626728067	220101
3	321392	82.583626728067	220242
3	321394	82.583626728067	220383
3	321425	82.588218386173	220524
3	321450	82.597466728067	220665
3	321452	82.597466728067	220806
3	321464	82.59876899642	220947
3	321627	82.611306728067	221088
3	322760	82.933626728067	221229
3	322779	82.947466728067	221370
3	322901	82.961306728067	221511
3	322956	82.975146728067	221652
3	323582	83.138218386173	221793
3	323968	83.233626728067	221934
3	323970	83.233626728067	222075
3	324005	83.247466728067	222216
3	324007	83.247466728067	222357
3	324484	83.347466728067	222498
3	324960	83.483626728067	222639
3	325800	83.702864192201	222780
3	326008	83.783626728067	222921
3	326472	83.883626728067	223062
3	326773	83.98396899642	223203
3	326792	83.99780899642	223344
3	326949	84.01164899642	223485
3	327689	84.233626728067	223626
3	327850	84.252864192201	223767
3	327861	84.253256785734	223908
3	327900	84.267096785734	224049
3	328486	84.433626728067	224190
3	329107	84.633626728067	224331
3	329126	84.647466728067	224472
3	329244	84.661306728067	224613
3	329263	84.675146728067	224754
3	329970	84.883626728067	224895
3	329989	84.897466728067	225036
3	330219	84.933626728067	225177
3	330237	84.947466728067	225318
3	330355	84.961306728067	225459
3	330430	84.975146728067	225600
3	330448	84.988986728067	225741
3	331132	85.183626728067	225882
3	331146	85.188456785734	226023
3	332973	85.733626728067	226164
3	333139	85.783626728067	226305
3	333377	85.833626728067	226446
3	333960	85.998272534095	226587
3	334113	86.003102591762	226728
3	334144	86.016942591762	226869
3	334503	86.133626728067	227010
3	334681	86.197466728067	227151
3	334838	86.211306728067	227292
3	334920	86.225146728067	227433
3	334939	86.238986728067	227574
3	335061	86.252826728067	227715
3	335104	86.266666728067	227856
3	335141	86.288456785734	227997
3	336084	86.548272534095	228138
3	336208	86.553102591762	228279
3	336812	86.733626728067	228420
3	336831	86.747466728067	228561
3	336955	86.761306728067	228702
3	337045	86.783626728067	228843
3	337063	86.797466728067	228984
3	337219	86.811306728067	229125
3	337295	86.825146728067	229266
3	337322	86.833626728067	229407
3	337341	86.847466728067	229548
3	338564	87.133626728067	229689
3	338583	87.147466728067	229830
3	338703	87.161306728067	229971
3	338992	87.238456785734	230112
3	339163	87.283626728067	230253
3	339517	87.383626728067	230394
3	339880	87.48396899642	230535
3	339899	87.49780899642	230676
3	341060	87.783626728067	230817
3	341088	87.797466728067	230958
3	341241	87.811306728067	231099
3	341263	87.825146728067	231240
3	341282	87.838986728067	231381
3	341406	87.852826728067	231522
3	341985	88.033626728067	231663
3	342777	88.233626728067	231804
3	343144	88.333626728067	231945
3	343592	88.483626728067	232086
3	343955	88.583626728067	232227
3	344324	88.683626728067	232368
3	344628	88.748462591762	232509
3	344750	88.762302591762	232650
3	346266	89.183626728067	232791
3	346294	89.197466728067	232932
3	346447	89.211306728067	233073
3	346489	89.233626728067	233214
3	346717	89.298462591762	233355
3	346876	89.312302591762	233496
3	346981	89.326142591762	233637
3	347000	89.333626728067	233778
3	347410	89.448426728067	233919
3	347968	89.598426728067	234060
3	349786	90.083626728067	234201
3	349822	90.097466728067	234342
3	350554	90.283626728067	234483
3	350588	90.298426728067	234624
3	350742	90.312266728067	234765
3	350781	90.326106728067	234906
3	351970	90.683626728067	235047
3	351989	90.697466728067	235188
3	352144	90.711306728067	235329
3	352767	90.883626728067	235470
3	352786	90.897466728067	235611
3	352941	90.911306728067	235752
3	353002	90.925146728067	235893
3	353542	91.093584192201	236034
3	354082	91.233626728067	236175
3	354554	91.383626728067	236316
3	354785	91.433626728067	236457
3	354970	91.483626728067	236598
3	354989	91.497466728067	236739
3	355342	91.583626728067	236880
3	355360	91.597466728067	237021
3	355518	91.611306728067	237162
3	355622	91.643584192201	237303
3	356798	91.983626728067	237444
3	356816	91.997466728067	237585
3	356983	92.011306728067	237726
3	357579	92.193584192201	237867
3	358621	92.497466728067	238008
3	358631	92.498426728067	238149
3	358795	92.511306728067	238290
3	358805	92.512266728067	238431
3	358875	92.525146728067	238572
3	358893	92.537019262162	238713
3	359647	92.733626728067	238854
3	360318	92.933626728067	238995
3	360703	93.033626728067	239136
3	360912	93.083626728067	239277
3	360930	93.097466728067	239418
3	361111	93.111306728067	239559
3	361207	93.125146728067	239700
3	361225	93.138986728067	239841
3	361346	93.152826728067	239982
3	361380	93.166666728067	240123
3	361606	93.233626728067	240264
3	361624	93.247466728067	240405
3	361858	93.283626728067	240546
3	362814	93.58396899642	240687
3	363035	93.633626728067	240828
3	363426	93.73396899642	240969
3	363621	93.78932899642	241110
3	364205	93.933626728067	241251
3	364867	94.133626728067	241392
3	364885	94.147466728067	241533
3	365100	94.183626728067	241674
3	365119	94.197466728067	241815
3	365280	94.211306728067	241956
3	365703	94.31164899642	242097
3	365799	94.32548899642	242238
3	366015	94.383626728067	242379
3	366028	94.397466728067	242520
3	366184	94.411306728067	242661
3	366256	94.425146728067	242802
3	367260	94.733626728067	242943
3	367278	94.747466728067	243084
3	367405	94.761306728067	243225
3	368415	95.03396899642	243366
3	368905	95.183626728067	243507
3	368923	95.197466728067	243648
3	369285	95.283626728067	243789
3	369287	95.283626728067	243930
3	369544	95.333626728067	244071
3	369557	95.347466728067	244212
3	370378	95.58396899642	244353
3	370723	95.683626728067	244494
3	370741	95.697466728067	244635
3	371326	95.833626728067	244776
3	371328	95.833626728067	244917
3	371356	95.847466728067	245058
3	371485	95.861306728067	245199
3	371578	95.875146728067	245340
3	371611	95.888986728067	245481
3	371763	95.902826728067	245622
3	373048	96.283626728067	245763
3	373255	96.347466728067	245904
3	373471	96.375146728067	246045
3	373504	96.393584192201	246186
3	373776	96.448462591762	246327
3	373901	96.476142591762	246468
3	373919	96.489982591762	246609
3	375307	96.883626728067	246750
3	375325	96.897466728067	246891
3	376146	97.083626728067	247032
3	376148	97.083626728067	247173
3	376182	97.097466728067	247314
3	376184	97.097466728067	247455
3	376377	97.111306728067	247596
3	376379	97.111306728067	247737
3	376449	97.125146728067	247878
3	376467	97.138986728067	248019
3	376592	97.152826728067	248160
3	376646	97.166666728067	248301
3	376703	97.180506728067	248442
3	376721	97.194346728067	248583
3	376873	97.208186728067	248724
3	376912	97.222026728067	248865
3	376930	97.235866728067	249006
3	376948	97.249706728067	249147
3	377067	97.263546728067	249288
3	377088	97.277386728067	249429
3	377106	97.291226728067	249570
3	377266	97.305066728067	249711
3	377320	97.318906728067	249852
3	377365	97.332746728067	249993
3	377383	97.346586728067	250134
3	377502	97.360426728067	250275
3	377532	97.374266728067	250416
3	377550	97.388106728067	250557
3	377706	97.401946728067	250698
3	377748	97.415786728067	250839
3	377790	97.429626728067	250980
3	377814	97.433626728067	251121
3	377816	97.433626728067	251262
3	377845	97.443466728067	251403
3	377863	97.447466728067	251544
3	377987	97.457306728067	251685
3	378032	97.471146728067	251826
3	378063	97.484986728067	251967
3	378073	97.486032534095	252108
3	378099	97.498826728067	252249
3	378109	97.499872534095	252390
3	378275	97.512666728067	252531
3	378360	97.526506728067	252672
3	378378	97.533626728067	252813
3	378396	97.540346728067	252954
3	378414	97.547466728067	253095
3	378535	97.554186728067	253236
3	378577	97.568026728067	253377
3	378604	97.581866728067	253518
3	378622	97.595706728067	253659
3	378776	97.609546728067	253800
3	379291	97.720789263933	253941
3	379467	97.783626728067	254082
3	380022	97.948272534095	254223
3	380145	97.962112534095	254364
3	380226	97.975952534095	254505
3	380244	97.989792534095	254646
3	380856	98.133626728067	254787
3	381404	98.283626728067	254928
3	381422	98.297466728067	255069
3	381580	98.311306728067	255210
3	381664	98.325146728067	255351
3	381682	98.338986728067	255492
3	381803	98.352826728067	255633
3	381847	98.38396899642	255774
3	382241	98.483626728067	255915
3	382462	98.533626728067	256056
3	382757	98.583626728067	256197
3	382775	98.597466728067	256338
3	382933	98.611306728067	256479
3	383017	98.625146728067	256620
3	383145	98.652826728067	256761
3	383199	98.666666728067	256902
3	383244	98.680506728067	257043
3	383262	98.694346728067	257184
3	383416	98.708186728067	257325
3	383447	98.722026728067	257466
3	383485	98.735866728067	257607
3	383503	98.749706728067	257748
3	383624	98.763546728067	257889
3	383679	98.777386728067	258030
3	383697	98.791226728067	258171
3	383855	98.805066728067	258312
3	383904	98.818906728067	258453
3	383955	98.832746728067	258594
3	383982	98.846586728067	258735
3	384103	98.860426728067	258876
3	384156	98.874266728067	259017
3	384169	98.883626728067	259158
3	384187	98.888106728067	259299
3	384205	98.897466728067	259440
3	384357	98.901946728067	259581
3	384375	98.911306728067	259722
3	384405	98.915786728067	259863
3	384432	98.925146728067	260004
3	384450	98.929626728067	260145
3	384468	98.938986728067	260286
3	384486	98.943466728067	260427
3	384612	98.957306728067	260568
3	384642	98.966666728067	260709
3	384669	98.971146728067	260850
3	384699	98.984986728067	260991
3	384726	98.998826728067	261132
3	384880	99.012666728067	261273
3	384940	99.026506728067	261414
3	384958	99.040346728067	261555
3	385079	99.054186728067	261696
3	385121	99.068026728067	261837
3	385157	99.081866728067	261978
3	385175	99.095706728067	262119
3	385352	99.109546728067	262260
3	385393	99.123386728067	262401
3	385411	99.13396899642	262542
3	385429	99.137226728067	262683
3	385552	99.151066728067	262824
3	385571	99.164906728067	262965
3	385651	99.178746728067	263106
3	385669	99.192586728067	263247
3	385875	99.220266728067	263388
3	385893	99.233626728067	263529
3	385903	99.234106728067	263670
3	385929	99.247946728067	263811
3	386050	99.261786728067	263952
3	386110	99.275626728067	264093
3	386128	99.289466728067	264234
3	386282	99.303306728067	264375
3	386307	99.317146728067	264516
3	386549	99.399669263933	264657
3	386752	99.427349263933	264798
3	386765	99.433626728067	264939
3	386783	99.441189263933	265080
3	386801	99.447466728067	265221
3	386918	99.455029263933	265362
3	386936	99.468869263933	265503
3	387510	99.633626728067	265644
3	387686	99.683626728067	265785
3	387704	99.697466728067	265926
3	389341	100.133626728067	266067
3	392567	101.08396899642	266208
3	393279	101.283626728067	266349
3	393300	101.297466728067	266490
3	393310	101.29780899642	266631
3	393463	101.31164899642	266772
3	395720	101.938266728067	266913
3	395843	101.952106728067	267054
3	395868	101.965946728067	267195
3	395894	101.979786728067	267336
3	395912	101.993626728067	267477
3	396073	102.007466728067	267618
3	396091	102.021306728067	267759
3	396109	102.035146728067	267900
3	396127	102.048986728067	268041
3	396252	102.062826728067	268182
3	396325	102.076666728067	268323
3	396354	102.090506728067	268464
3	396510	102.104346728067	268605
3	396564	102.118186728067	268746
3	396600	102.132026728067	268887
3	396618	102.145866728067	269028
3	396737	102.159706728067	269169
3	396767	102.173546728067	269310
3	396785	102.187386728067	269451
3	396941	102.201226728067	269592
3	396962	102.215066728067	269733
3	396980	102.228906728067	269874
3	397018	102.242746728067	270015
3	397036	102.248426728067	270156
3	397160	102.262266728067	270297
3	397199	102.270426728067	270438
3	397217	102.284266728067	270579
3	397235	102.298106728067	270720
3	397391	102.311946728067	270861
3	397407	102.325786728067	271002
3	397425	102.339626728067	271143
3	397548	102.353466728067	271284
3	397581	102.367306728067	271425
3	397594	102.381146728067	271566
3	397612	102.394986728067	271707
3	397762	102.408826728067	271848
3	397780	102.422666728067	271989
3	397798	102.436506728067	272130
3	397923	102.450346728067	272271
3	397941	102.464186728067	272412
3	398043	102.478026728067	272553
3	398061	102.485419262162	272694
3	398079	102.491866728067	272835
3	398097	102.499259262162	272976
3	398247	102.505706728067	273117
3	398268	102.519546728067	273258
3	398286	102.533386728067	273399
3	398304	102.547226728067	273540
3	398421	102.561066728067	273681
3	398439	102.574906728067	273822
3	398452	102.588746728067	273963
3	398610	102.602586728067	274104
3	398668	102.616426728067	274245
3	398730	102.630266728067	274386
3	398748	102.644106728067	274527
3	398871	102.657946728067	274668
3	398928	102.671786728067	274809
3	398946	102.685626728067	274950
3	398964	102.699466728067	275091
3	399114	102.713306728067	275232
3	399132	102.727146728067	275373
3	399150	102.740986728067	275514
3	399271	102.754826728067	275655
3	399301	102.768666728067	275796
3	399328	102.782506728067	275937
3	399346	102.796346728067	276078
3	399500	102.810186728067	276219
3	399560	102.824026728067	276360
3	399578	102.837866728067	276501
3	399697	102.851706728067	276642
3	399727	102.865546728067	276783
3	399745	102.879386728067	276924
3	399763	102.893226728067	277065
3	399913	102.907066728067	277206
3	399931	102.920906728067	277347
3	399949	102.934746728067	277488
3	399967	102.948586728067	277629
3	400086	102.962426728067	277770
3	400125	102.976266728067	277911
3	400143	102.990106728067	278052
3	400381	103.033626728067	278193
3	402120	103.53396899642	278334
3	402134	103.54780899642	278475
3	402886	103.693584192201	278616
3	403051	103.707424192201	278757
3	403163	103.721264192201	278898
3	403200	103.735104192201	279039
3	403219	103.748944192201	279180
3	403343	103.762784192201	279321
3	403419	103.776624192201	279462
3	403438	103.790464192201	279603
3	403599	103.804304192201	279744
3	403628	103.818144192201	279885
3	403668	103.831984192201	280026
3	403699	103.845824192201	280167
3	403835	103.859664192201	280308
3	403900	103.873504192201	280449
3	403919	103.887344192201	280590
3	404106	103.915024192201	280731
3	404161	103.928864192201	280872
3	404180	103.942704192201	281013
3	404304	103.956544192201	281154
3	404359	103.970384192201	281295
3	404387	103.984224192201	281436
3	404406	103.998064192201	281577
3	404559	104.011904192201	281718
3	404599	104.025744192201	281859
3	404618	104.039584192201	282000
3	404744	104.053424192201	282141
3	404782	104.067264192201	282282
3	404841	104.081104192201	282423
3	405006	104.108784192201	282564
3	405109	104.122624192201	282705
3	405128	104.136464192201	282846
3	405246	104.150304192201	282987
3	405265	104.164144192201	283128
3	405284	104.177984192201	283269
3	405303	104.191824192201	283410
3	405457	104.205664192201	283551
3	405494	104.219504192201	283692
3	405522	104.233344192201	283833
3	405541	104.247184192201	283974
3	405669	104.261024192201	284115
3	405787	104.274864192201	284256
3	405806	104.288704192201	284397
3	405963	104.302544192201	284538
3	406042	104.330224192201	284679
3	406061	104.344064192201	284820
3	406183	104.357904192201	284961
3	406223	104.371744192201	285102
3	406263	104.385584192201	285243
3	406282	104.399424192201	285384
3	406437	104.413264192201	285525
3	406492	104.427104192201	285666
3	406511	104.440944192201	285807
3	406635	104.454784192201	285948
3	406690	104.468624192201	286089
3	406730	104.482464192201	286230
3	406749	104.496304192201	286371
3	406899	104.510144192201	286512
3	406942	104.523984192201	286653
3	406961	104.537824192201	286794
3	407081	104.551664192201	286935
3	407112	104.565504192201	287076
3	407140	104.579344192201	287217
3	407159	104.593184192201	287358
3	407312	104.607024192201	287499
3	407334	104.620864192201	287640
3	407353	104.634704192201	287781
3	407372	104.648544192201	287922
3	407496	104.662384192201	288063
3	407578	104.676224192201	288204
3	407597	104.690064192201	288345
3	407748	104.703904192201	288486
3	407762	104.717744192201	288627
3	407781	104.731584192201	288768
3	407800	104.745424192201	288909
3	407918	104.759264192201	289050
3	409111	105.133626728067	289191
3	409815	105.333730596859	289332
3	409833	105.347570596859	289473
3	409956	105.361410596859	289614
3	410019	105.375250596859	289755
3	410037	105.389090596859	289896
3	410197	105.402930596859	290037
3	410305	105.430610596859	290178
3	410323	105.444450596859	290319
3	414331	106.593584192201	290460
3	417259	107.483730596859	290601
3	417839	107.633626728067	290742
3	417857	107.647466728067	290883
3	417980	107.661306728067	291024
3	418037	107.675146728067	291165
3	418055	107.688986728067	291306
3	418213	107.702826728067	291447
3	418262	107.716666728067	291588
3	423144	109.233626728067	291729
3	423162	109.247466728067	291870
3	423285	109.261306728067	292011
3	423345	109.275146728067	292152
3	423384	109.288986728067	292293
3	423538	109.302826728067	292434
3	423580	109.316666728067	292575
3	423992	109.438266728067	292716
3	424727	109.63396899642	292857
3	426508	110.133626728067	292998
3	426742	110.18396899642	293139
3	426760	110.19780899642	293280
3	426914	110.21164899642	293421
3	426953	110.22548899642	293562
3	426981	110.23932899642	293703
3	427102	110.25316899642	293844
3	428767	110.73396899642	293985
3	428785	110.74780899642	294126
3	430711	111.283626728067	294267
3	430729	111.297466728067	294408
3	430887	111.311306728067	294549
3	433699	112.133626728067	294690
3	436903	113.098426728067	294831
3	437062	113.112266728067	294972
3	437135	113.126106728067	295113
3	437184	113.139946728067	295254

