version 2
run Agw-0-20190930-00:41:27-28901
attr configname Agw
attr datetime 20190930-00:41:27
attr experiment Agw
attr inifile SimV2.ini
attr iterationvars ""
attr iterationvarsf ""
attr measurement ""
attr network NetworkTormV2
attr processid 28901
attr repetition 0
attr replication #0
attr resultdir results
attr runnumber 0
attr seedset 0
param **.mobility.traceFile "\"paths/Agw.movements\""
param **.numNodes 6
param **.wirelessIfc.wirelessRange 40m
param **.bluetoothIfc.wirelessRange 40m
param **application.destinationAddr "\"Wf:00:00:00:00:02\""
param **application.destinationBTAddr "\"Bt:00:00:00:00:02\""
param **application.nodesThatGen true
param **application.nodesGenMsg "\"0,1,2,3,4,5\""
param **application.startMultipleMsg true
param **application.numMultipleMsg 100
param **application.hopsListSize 50
param **.routingLayer "\"RoutingLqeGw\""
param **.routing.maximumCacheSize 5000byte
param **.routing.maximumHopCount 25
param **.routing.useTTL false
param **.routing.waitBFsend 0.5
param **.routing.max_age 999999s
param **.routing.gateway_list "\"\""
param **.routing.actual_gateway "\"\""
param **.routing.gwCheckPeriod 5s
param **.numNodes 2
param **.application.usedRNG 1
param **.application.dataGenerationInterval 1ms
param **.application.dataSizeInBytes 10
param **.application.ttl 999999s
param **application.destinationAddr "\"Wf:00:00:00:00:02\""
param **application.destinationBTAddr "\"Bt:00:00:00:00:02\""
param **application.nodesThatGen true
param **application.nodesGenMsg "\"0\""
param **application.startMultipleMsg true
param **application.numMultipleMsg 100
param **application.hopsListSize 50
param **.application.endGeneratingMsg 999999s
param **.routingLayer "\"RoutingLqeGw\""
param **.routing.maximumCacheSize 5000byte
param **.routing.maximumHopCount 25
param **.routing.useTTL false
param **.routing.waitBFsend 0.5
param **.routing.max_age 999999s
param **.routing.gateway_list "\"Wf:00:00:00:00:02;0|.\""
param **.routing.actual_gateway "\"Wf:00:00:00:00:02\""
param **.routing.gwCheckPeriod 5s
param **.neighboring.antiEntropyInterval 500ms
param **.neighboring.maximumRandomBackoffDuration 1s
param **.neighboring.delayPerDataMsg 0.1
param **neighboring.usedRNG 2
param **.neighboring.GWAddr "\"Wf:00:00:00:00:02\""
param **.neighboring.sendWifiFirst true
param **.neighboring.maxLengthGraph 20
param **.neighboring.max_age 999999s
param **.neighboring.max_absent_time 1s
param **.wirelessIfc.wirelessRange 15m
param **.wirelessIfc.neighbourScanInterval 50ms
param **.wirelessIfc.bandwidthBitRate 100000bps
param **.wirelessIfc.wirelessHeaderSize 32byte
param **.wirelessIfc.minSSI -90
param **.wirelessIfc.limitQueueTime 400ms
param **.wirelessIfc.my_limit_rate 0bps
param **.bluetoothIfc.wirelessRange 15m
param **.bluetoothIfc.neighbourScanInterval 100ms
param **.bluetoothIfc.bandwidthBitRate 100000bps
param **.bluetoothIfc.wirelessHeaderSize 16byte
param **.bluetoothIfc.minSSI -90
param **.mobilityType "\"BonnMotionMobility\""
param **.mobility.traceFile "\"paths/Moves2.movements\""
param **.mobility.is3D false
param **.mobility.nodeId -1

vector 0 NetworkTormV2 neighbourhoodSize:vector ETV
attr source neighbourhoodSize
vector 1 NetworkTormV2 deliveryRatio:vector ETV
attr source sum(totalDataBytesReceived)/sum(totalDataBytesReceivableByAllNodes)
vector 2 NetworkTormV2 dataBytesReceivedSum:vector ETV
attr source sum(dataBytesReceived)
vector 3 NetworkTormV2 totalBytesReceivedSum:vector ETV
attr source sum(totalBytesReceived)
0	19	0.05	1
0	20	0.05	2
0	21	0.05	1
0	22	0.05	1
0	23	0.05	1
0	24	0.05	0
0	44	0.1	1
0	46	0.1	2
0	48	0.1	1
0	50	0.1	1
0	52	0.1	1
0	54	0.1	0
0	55	0.1	1
0	56	0.1	2
0	57	0.1	1
0	58	0.1	1
0	59	0.1	1
0	60	0.1	0
0	683	0.15	1
0	684	0.15	2
0	685	0.15	1
0	686	0.15	1
0	687	0.15	1
0	688	0.15	0
0	1307	0.2	1
0	1308	0.2	2
0	1309	0.2	1
0	1310	0.2	1
0	1311	0.2	1
0	1312	0.2	0
0	1313	0.2	1
0	1314	0.2	2
0	1315	0.2	1
0	1316	0.2	1
0	1317	0.2	1
0	1318	0.2	0
0	1347	0.25	1
0	1348	0.25	2
0	1349	0.25	1
0	1350	0.25	1
0	1351	0.25	1
0	1352	0.25	0
0	1371	0.3	1
0	1372	0.3	2
0	1373	0.3	1
0	1374	0.3	1
0	1375	0.3	1
0	1376	0.3	0
0	1377	0.3	1
0	1378	0.3	2
0	1379	0.3	1
0	1380	0.3	1
0	1381	0.3	1
0	1382	0.3	0
0	1411	0.35	1
0	1412	0.35	2
0	1413	0.35	1
0	1414	0.35	1
0	1415	0.35	1
0	1416	0.35	0
0	1435	0.4	1
0	1436	0.4	2
0	1437	0.4	1
0	1438	0.4	1
0	1439	0.4	1
0	1440	0.4	0
0	1441	0.4	1
0	1442	0.4	2
0	1443	0.4	1
0	1444	0.4	1
0	1445	0.4	1
0	1446	0.4	0
0	1475	0.45	1
0	1476	0.45	2
0	1477	0.45	1
0	1478	0.45	1
0	1479	0.45	1
0	1480	0.45	0
0	1499	0.5	1
0	1500	0.5	2
0	1501	0.5	1
0	1502	0.5	1
0	1503	0.5	1
0	1504	0.5	0
0	1505	0.5	1
0	1506	0.5	2
0	1507	0.5	1
0	1508	0.5	1
0	1509	0.5	1
0	1510	0.5	0
0	1539	0.55	1
0	1540	0.55	2
0	1541	0.55	1
0	1542	0.55	1
0	1543	0.55	1
0	1544	0.55	0
0	1563	0.6	1
0	1564	0.6	2
0	1565	0.6	1
0	1566	0.6	1
0	1567	0.6	1
0	1568	0.6	0
0	1569	0.6	1
0	1570	0.6	2
0	1571	0.6	1
0	1572	0.6	1
0	1573	0.6	1
0	1574	0.6	0
0	1603	0.65	1
0	1604	0.65	2
0	1605	0.65	1
0	1606	0.65	1
0	1607	0.65	1
0	1608	0.65	0
0	1627	0.7	1
0	1628	0.7	2
0	1629	0.7	1
0	1630	0.7	1
0	1631	0.7	1
0	1632	0.7	0
0	1633	0.7	1
0	1634	0.7	2
0	1635	0.7	1
0	1636	0.7	1
0	1637	0.7	1
0	1638	0.7	0
0	1667	0.75	1
0	1668	0.75	2
0	1669	0.75	1
0	1670	0.75	1
0	1671	0.75	1
0	1672	0.75	0
0	1691	0.8	1
0	1692	0.8	2
0	1693	0.8	1
0	1694	0.8	1
0	1695	0.8	1
0	1696	0.8	0
0	1697	0.8	1
0	1698	0.8	2
0	1699	0.8	1
0	1700	0.8	1
0	1701	0.8	1
0	1702	0.8	0
0	1731	0.85	1
0	1732	0.85	2
0	1733	0.85	1
0	1734	0.85	1
0	1735	0.85	1
0	1736	0.85	0
0	1755	0.9	1
0	1756	0.9	2
0	1757	0.9	1
0	1758	0.9	1
0	1759	0.9	1
0	1760	0.9	0
0	1761	0.9	1
0	1762	0.9	2
0	1763	0.9	1
0	1764	0.9	1
0	1765	0.9	1
0	1766	0.9	0
0	1795	0.95	1
0	1796	0.95	2
0	1797	0.95	1
0	1798	0.95	1
0	1799	0.95	1
0	1800	0.95	0
0	1819	1	1
0	1820	1	2
0	1821	1	1
0	1822	1	1
0	1823	1	1
0	1824	1	0
0	1825	1	1
0	1826	1	2
0	1827	1	1
0	1828	1	1
0	1829	1	1
0	1830	1	0
0	1859	1.05	1
0	1860	1.05	2
0	1861	1.05	1
0	1862	1.05	1
0	1863	1.05	1
0	1864	1.05	0
0	1883	1.1	1
0	1884	1.1	2
0	1885	1.1	1
0	1886	1.1	1
0	1887	1.1	1
0	1888	1.1	0
0	1889	1.1	1
0	1890	1.1	2
0	1891	1.1	1
0	1892	1.1	1
0	1893	1.1	1
0	1894	1.1	0
0	2007	1.15	1
0	2008	1.15	2
0	2009	1.15	1
0	2010	1.15	1
0	2011	1.15	1
0	2012	1.15	0
0	2031	1.2	1
0	2032	1.2	2
0	2033	1.2	1
0	2034	1.2	1
0	2035	1.2	1
0	2036	1.2	0
0	2037	1.2	1
0	2038	1.2	2
0	2039	1.2	1
0	2040	1.2	1
0	2041	1.2	1
0	2042	1.2	0
0	2071	1.25	1
0	2072	1.25	2
0	2073	1.25	1
0	2074	1.25	1
0	2075	1.25	1
0	2076	1.25	0
0	2095	1.3	1
0	2096	1.3	2
0	2097	1.3	1
0	2098	1.3	1
0	2099	1.3	1
0	2100	1.3	0
0	2101	1.3	1
0	2102	1.3	2
0	2103	1.3	1
0	2104	1.3	1
0	2105	1.3	1
0	2106	1.3	0
0	2135	1.35	1
0	2136	1.35	2
0	2137	1.35	1
0	2138	1.35	1
0	2139	1.35	1
0	2140	1.35	0
0	2159	1.4	1
0	2160	1.4	2
0	2161	1.4	1
0	2162	1.4	1
0	2163	1.4	1
0	2164	1.4	0
0	2165	1.4	1
0	2166	1.4	2
0	2167	1.4	1
0	2168	1.4	1
0	2169	1.4	1
0	2170	1.4	0
0	2199	1.45	1
0	2200	1.45	2
0	2201	1.45	1
0	2202	1.45	1
0	2203	1.45	1
0	2204	1.45	0
0	2223	1.5	1
0	2224	1.5	2
0	2225	1.5	1
0	2226	1.5	1
0	2227	1.5	1
0	2228	1.5	0
0	2229	1.5	1
0	2230	1.5	2
0	2231	1.5	1
0	2232	1.5	1
0	2233	1.5	1
0	2234	1.5	0
0	2263	1.55	1
0	2264	1.55	2
0	2265	1.55	1
0	2266	1.55	1
0	2267	1.55	1
0	2268	1.55	0
0	2287	1.6	1
0	2288	1.6	2
0	2289	1.6	1
0	2290	1.6	1
0	2291	1.6	1
0	2292	1.6	0
0	2293	1.6	1
0	2294	1.6	2
0	2295	1.6	1
0	2296	1.6	1
0	2297	1.6	1
0	2298	1.6	0
0	2327	1.65	1
0	2328	1.65	2
0	2329	1.65	1
0	2330	1.65	1
0	2331	1.65	1
0	2332	1.65	0
0	2435	1.7	1
0	2436	1.7	2
0	2437	1.7	1
0	2438	1.7	1
0	2439	1.7	1
0	2440	1.7	0
0	2441	1.7	1
0	2442	1.7	2
0	2443	1.7	1
0	2444	1.7	1
0	2445	1.7	1
0	2446	1.7	0
0	2475	1.75	1
0	2476	1.75	2
0	2477	1.75	1
0	2478	1.75	1
0	2479	1.75	1
0	2480	1.75	0
0	2499	1.8	1
0	2500	1.8	2
0	2501	1.8	1
0	2502	1.8	1
0	2503	1.8	1
0	2504	1.8	0
0	2505	1.8	1
0	2506	1.8	2
0	2507	1.8	1
0	2508	1.8	1
0	2509	1.8	1
0	2510	1.8	0
0	2539	1.85	1
0	2540	1.85	2
0	2541	1.85	1
0	2542	1.85	1
0	2543	1.85	1
0	2544	1.85	0
0	2563	1.9	1
0	2564	1.9	2
0	2565	1.9	1
0	2566	1.9	1
0	2567	1.9	1
0	2568	1.9	0
0	2569	1.9	1
0	2570	1.9	2
0	2571	1.9	1
0	2572	1.9	1
0	2573	1.9	1
0	2574	1.9	0
0	2603	1.95	1
0	2604	1.95	2
0	2605	1.95	1
0	2606	1.95	1
0	2607	1.95	1
0	2608	1.95	0
0	2627	2	1
0	2628	2	2
0	2629	2	1
0	2630	2	1
0	2631	2	1
0	2632	2	0
0	2633	2	1
0	2634	2	2
0	2635	2	1
0	2636	2	1
0	2637	2	1
0	2638	2	0
0	2667	2.05	1
0	2668	2.05	2
0	2669	2.05	1
0	2670	2.05	1
0	2671	2.05	1
0	2672	2.05	0
0	2691	2.1	1
0	2692	2.1	2
0	2693	2.1	1
0	2694	2.1	1
0	2695	2.1	1
0	2696	2.1	0
0	2697	2.1	1
0	2698	2.1	2
0	2699	2.1	1
0	2700	2.1	1
0	2701	2.1	1
0	2702	2.1	0
0	2731	2.15	1
0	2732	2.15	2
0	2733	2.15	1
0	2734	2.15	1
0	2735	2.15	1
0	2736	2.15	0
0	2755	2.2	1
0	2756	2.2	2
0	2757	2.2	1
0	2758	2.2	1
0	2759	2.2	1
0	2760	2.2	0
0	2761	2.2	1
0	2762	2.2	2
0	2763	2.2	1
0	2764	2.2	1
0	2765	2.2	1
0	2766	2.2	0
0	2879	2.25	1
0	2880	2.25	2
0	2881	2.25	1
0	2882	2.25	1
0	2883	2.25	1
0	2884	2.25	0
0	2903	2.3	1
0	2904	2.3	2
0	2905	2.3	1
0	2906	2.3	1
0	2907	2.3	1
0	2908	2.3	0
0	2909	2.3	1
0	2910	2.3	2
0	2911	2.3	1
0	2912	2.3	1
0	2913	2.3	1
0	2914	2.3	0
0	2943	2.35	1
0	2944	2.35	2
0	2945	2.35	1
0	2946	2.35	1
0	2947	2.35	1
0	2948	2.35	0
0	2967	2.4	1
0	2968	2.4	2
0	2969	2.4	1
0	2970	2.4	1
0	2971	2.4	1
0	2972	2.4	0
0	2973	2.4	1
0	2974	2.4	2
0	2975	2.4	1
0	2976	2.4	1
0	2977	2.4	1
0	2978	2.4	0
0	3007	2.45	1
0	3008	2.45	2
0	3009	2.45	1
0	3010	2.45	1
0	3011	2.45	1
0	3012	2.45	0
0	3031	2.5	1
0	3032	2.5	2
0	3033	2.5	1
0	3034	2.5	1
0	3035	2.5	1
0	3036	2.5	0
0	3037	2.5	1
0	3038	2.5	2
0	3039	2.5	1
0	3040	2.5	1
0	3041	2.5	1
0	3042	2.5	0
0	3071	2.55	1
0	3072	2.55	2
0	3073	2.55	1
0	3074	2.55	1
0	3075	2.55	1
0	3076	2.55	0
0	3095	2.6	1
0	3096	2.6	2
0	3097	2.6	1
0	3098	2.6	1
0	3099	2.6	1
0	3100	2.6	0
0	3101	2.6	1
0	3102	2.6	2
0	3103	2.6	1
0	3104	2.6	1
0	3105	2.6	1
0	3106	2.6	0
0	3135	2.65	1
0	3136	2.65	2
0	3137	2.65	1
0	3138	2.65	1
0	3139	2.65	1
0	3140	2.65	0
0	3159	2.7	1
0	3160	2.7	2
0	3161	2.7	1
0	3162	2.7	1
0	3163	2.7	1
0	3164	2.7	0
0	3165	2.7	1
0	3166	2.7	2
0	3167	2.7	1
0	3168	2.7	1
0	3169	2.7	1
0	3170	2.7	0
0	3199	2.75	1
0	3200	2.75	2
0	3201	2.75	1
0	3202	2.75	1
0	3203	2.75	1
0	3204	2.75	0
0	3303	2.8	1
0	3304	2.8	2
0	3305	2.8	1
0	3306	2.8	1
0	3307	2.8	1
0	3308	2.8	0
0	3309	2.8	1
0	3310	2.8	2
0	3311	2.8	1
0	3312	2.8	1
0	3313	2.8	1
0	3314	2.8	0
0	3343	2.85	1
0	3344	2.85	2
0	3345	2.85	1
0	3346	2.85	1
0	3347	2.85	1
0	3348	2.85	0
0	3367	2.9	1
0	3368	2.9	2
0	3369	2.9	1
0	3370	2.9	1
0	3371	2.9	1
0	3372	2.9	0
0	3373	2.9	1
0	3374	2.9	2
0	3375	2.9	1
0	3376	2.9	1
0	3377	2.9	1
0	3378	2.9	0
0	3407	2.95	1
0	3408	2.95	2
0	3409	2.95	1
0	3410	2.95	1
0	3411	2.95	1
0	3412	2.95	0
0	3431	3	1
0	3432	3	2
0	3433	3	1
0	3434	3	1
0	3435	3	1
0	3436	3	0
0	3437	3	1
0	3438	3	2
0	3439	3	1
0	3440	3	1
0	3441	3	1
0	3442	3	0
0	3471	3.05	1
0	3472	3.05	2
0	3473	3.05	1
0	3474	3.05	1
0	3475	3.05	1
0	3476	3.05	0
0	3495	3.1	1
0	3496	3.1	2
0	3497	3.1	1
0	3498	3.1	1
0	3499	3.1	1
0	3500	3.1	0
0	3501	3.1	1
0	3502	3.1	2
0	3503	3.1	1
0	3504	3.1	1
0	3505	3.1	1
0	3506	3.1	0
0	3535	3.15	1
0	3536	3.15	2
0	3537	3.15	1
0	3538	3.15	1
0	3539	3.15	1
0	3540	3.15	0
0	3559	3.2	1
0	3560	3.2	2
0	3561	3.2	1
0	3562	3.2	1
0	3563	3.2	1
0	3564	3.2	0
0	3565	3.2	1
0	3566	3.2	2
0	3567	3.2	1
0	3568	3.2	1
0	3569	3.2	1
0	3570	3.2	0
0	3599	3.25	1
0	3600	3.25	2
0	3601	3.25	1
0	3602	3.25	1
0	3603	3.25	1
0	3604	3.25	0
0	3623	3.3	1
0	3624	3.3	2
0	3625	3.3	1
0	3626	3.3	1
0	3627	3.3	1
0	3628	3.3	0
0	3629	3.3	1
0	3630	3.3	2
0	3631	3.3	1
0	3632	3.3	1
0	3633	3.3	1
0	3634	3.3	0
0	3743	3.35	1
0	3744	3.35	2
0	3745	3.35	1
0	3746	3.35	1
0	3747	3.35	1
0	3748	3.35	0
0	3767	3.4	1
0	3768	3.4	2
0	3769	3.4	1
0	3770	3.4	1
0	3771	3.4	1
0	3772	3.4	0
0	3773	3.4	1
0	3774	3.4	2
0	3775	3.4	1
0	3776	3.4	1
0	3777	3.4	1
0	3778	3.4	0
0	3807	3.45	1
0	3808	3.45	2
0	3809	3.45	1
0	3810	3.45	1
0	3811	3.45	1
0	3812	3.45	0
0	3831	3.5	1
0	3832	3.5	2
0	3833	3.5	1
0	3834	3.5	1
0	3835	3.5	1
0	3836	3.5	0
0	3837	3.5	1
0	3838	3.5	2
0	3839	3.5	1
0	3840	3.5	1
0	3841	3.5	1
0	3842	3.5	0
0	3871	3.55	1
0	3872	3.55	2
0	3873	3.55	1
0	3874	3.55	1
0	3875	3.55	1
0	3876	3.55	0
0	3895	3.6	1
0	3896	3.6	2
0	3897	3.6	1
0	3898	3.6	1
0	3899	3.6	1
0	3900	3.6	0
0	3901	3.6	1
0	3902	3.6	2
0	3903	3.6	1
0	3904	3.6	1
0	3905	3.6	1
0	3906	3.6	0
0	3935	3.65	1
0	3936	3.65	2
0	3937	3.65	1
0	3938	3.65	1
0	3939	3.65	1
0	3940	3.65	0
0	3959	3.7	1
0	3960	3.7	2
0	3961	3.7	1
0	3962	3.7	1
0	3963	3.7	1
0	3964	3.7	0
0	3965	3.7	1
0	3966	3.7	2
0	3967	3.7	1
0	3968	3.7	1
0	3969	3.7	1
0	3970	3.7	0
0	3999	3.75	1
0	4000	3.75	2
0	4001	3.75	1
0	4002	3.75	1
0	4003	3.75	1
0	4004	3.75	0
0	4023	3.8	1
0	4024	3.8	2
0	4025	3.8	1
0	4026	3.8	1
0	4027	3.8	1
0	4028	3.8	0
0	4029	3.8	1
0	4030	3.8	2
0	4031	3.8	1
0	4032	3.8	1
0	4033	3.8	1
0	4034	3.8	0
0	4063	3.85	1
0	4064	3.85	2
0	4065	3.85	1
0	4066	3.85	1
0	4067	3.85	1
0	4068	3.85	0
0	4167	3.9	1
0	4168	3.9	2
0	4169	3.9	1
0	4170	3.9	1
0	4171	3.9	1
0	4172	3.9	0
0	4173	3.9	1
0	4174	3.9	2
0	4175	3.9	1
0	4176	3.9	1
0	4177	3.9	1
0	4178	3.9	0
0	4207	3.95	1
0	4208	3.95	2
0	4209	3.95	1
0	4210	3.95	1
0	4211	3.95	1
0	4212	3.95	0
0	4231	4	1
0	4232	4	2
0	4233	4	1
0	4234	4	1
0	4235	4	1
0	4236	4	0
0	4237	4	1
0	4238	4	2
0	4239	4	1
0	4240	4	1
0	4241	4	1
0	4242	4	0
0	4271	4.05	1
0	4272	4.05	2
0	4273	4.05	1
0	4274	4.05	1
0	4275	4.05	1
0	4276	4.05	0
0	4295	4.1	1
0	4296	4.1	2
0	4297	4.1	1
0	4298	4.1	1
0	4299	4.1	1
0	4300	4.1	0
0	4301	4.1	1
0	4302	4.1	2
0	4303	4.1	1
0	4304	4.1	1
0	4305	4.1	1
0	4306	4.1	0
0	4335	4.15	1
0	4336	4.15	2
0	4337	4.15	1
0	4338	4.15	1
0	4339	4.15	1
0	4340	4.15	0
0	4359	4.2	1
0	4360	4.2	2
0	4361	4.2	1
0	4362	4.2	1
0	4363	4.2	1
0	4364	4.2	0
0	4365	4.2	1
0	4366	4.2	2
0	4367	4.2	1
0	4368	4.2	1
0	4369	4.2	1
0	4370	4.2	0
0	4399	4.25	1
0	4400	4.25	2
0	4401	4.25	1
0	4402	4.25	1
0	4403	4.25	1
0	4404	4.25	0
0	4423	4.3	1
0	4424	4.3	2
0	4425	4.3	1
0	4426	4.3	1
0	4427	4.3	1
0	4428	4.3	0
0	4429	4.3	1
0	4430	4.3	2
0	4431	4.3	1
0	4432	4.3	1
0	4433	4.3	1
0	4434	4.3	0
0	4463	4.35	1
0	4464	4.35	2
0	4465	4.35	1
0	4466	4.35	1
0	4467	4.35	1
0	4468	4.35	0
0	4487	4.4	1
0	4488	4.4	2
0	4489	4.4	1
0	4490	4.4	1
0	4491	4.4	1
0	4492	4.4	0
0	4493	4.4	1
0	4494	4.4	2
0	4495	4.4	1
0	4496	4.4	1
0	4497	4.4	1
0	4498	4.4	0
0	4611	4.45	1
0	4612	4.45	2
0	4613	4.45	1
0	4614	4.45	1
0	4615	4.45	1
0	4616	4.45	0
0	4635	4.5	1
0	4636	4.5	2
0	4637	4.5	1
0	4638	4.5	1
0	4639	4.5	1
0	4640	4.5	0
0	4641	4.5	1
0	4642	4.5	2
0	4643	4.5	1
0	4644	4.5	1
0	4645	4.5	1
0	4646	4.5	0
0	4675	4.55	1
0	4676	4.55	2
0	4677	4.55	1
0	4678	4.55	1
0	4679	4.55	1
0	4680	4.55	0
0	4699	4.6	1
0	4700	4.6	2
0	4701	4.6	1
0	4702	4.6	1
0	4703	4.6	1
0	4704	4.6	0
0	4705	4.6	1
0	4706	4.6	2
0	4707	4.6	1
0	4708	4.6	1
0	4709	4.6	1
0	4710	4.6	0
0	4739	4.65	1
0	4740	4.65	2
0	4741	4.65	1
0	4742	4.65	1
0	4743	4.65	1
0	4744	4.65	0
0	4763	4.7	1
0	4764	4.7	2
0	4765	4.7	1
0	4766	4.7	1
0	4767	4.7	1
0	4768	4.7	0
0	4769	4.7	1
0	4770	4.7	2
0	4771	4.7	1
0	4772	4.7	1
0	4773	4.7	1
0	4774	4.7	0
0	4803	4.75	1
0	4804	4.75	2
0	4805	4.75	1
0	4806	4.75	1
0	4807	4.75	1
0	4808	4.75	0
0	4827	4.8	1
0	4828	4.8	2
0	4829	4.8	1
0	4830	4.8	1
0	4831	4.8	1
0	4832	4.8	0
0	4833	4.8	1
0	4834	4.8	2
0	4835	4.8	1
0	4836	4.8	1
0	4837	4.8	1
0	4838	4.8	0
0	4867	4.85	1
0	4868	4.85	2
0	4869	4.85	1
0	4870	4.85	1
0	4871	4.85	1
0	4872	4.85	0
0	4891	4.9	1
0	4892	4.9	2
0	4893	4.9	1
0	4894	4.9	1
0	4895	4.9	1
0	4896	4.9	0
0	4897	4.9	1
0	4898	4.9	2
0	4899	4.9	1
0	4900	4.9	1
0	4901	4.9	1
0	4902	4.9	0
0	4931	4.95	1
0	4932	4.95	2
0	4933	4.95	1
0	4934	4.95	1
0	4935	4.95	1
0	4936	4.95	0
0	5041	5	1
0	5042	5	2
0	5043	5	1
0	5044	5	1
0	5045	5	1
0	5046	5	0
0	5047	5	1
0	5048	5	2
0	5049	5	1
0	5050	5	1
0	5051	5	1
0	5052	5	0
0	5081	5.05	1
0	5082	5.05	2
0	5083	5.05	1
0	5084	5.05	1
0	5085	5.05	1
0	5086	5.05	0
0	5105	5.1	1
0	5106	5.1	2
0	5107	5.1	1
0	5108	5.1	1
0	5109	5.1	1
0	5110	5.1	0
0	5111	5.1	1
0	5112	5.1	2
0	5113	5.1	1
0	5114	5.1	1
0	5115	5.1	1
0	5116	5.1	0
0	5145	5.15	1
0	5146	5.15	2
0	5147	5.15	1
0	5148	5.15	1
0	5149	5.15	1
0	5150	5.15	0
0	5169	5.2	1
0	5170	5.2	2
0	5171	5.2	1
0	5172	5.2	1
0	5173	5.2	1
0	5174	5.2	0
0	5175	5.2	1
0	5176	5.2	2
0	5177	5.2	1
0	5178	5.2	1
0	5179	5.2	1
0	5180	5.2	0
0	5209	5.25	1
0	5210	5.25	2
0	5211	5.25	1
0	5212	5.25	1
0	5213	5.25	1
0	5214	5.25	0
0	5233	5.3	1
0	5234	5.3	2
0	5235	5.3	1
0	5236	5.3	1
0	5237	5.3	1
0	5238	5.3	0
0	5239	5.3	1
0	5240	5.3	2
0	5241	5.3	1
0	5242	5.3	1
0	5243	5.3	1
0	5244	5.3	0
0	5273	5.35	1
0	5274	5.35	2
0	5275	5.35	1
0	5276	5.35	1
0	5277	5.35	1
0	5278	5.35	0
0	5297	5.4	1
0	5298	5.4	2
0	5299	5.4	1
0	5300	5.4	1
0	5301	5.4	1
0	5302	5.4	0
0	5303	5.4	1
0	5304	5.4	2
0	5305	5.4	1
0	5306	5.4	1
0	5307	5.4	1
0	5308	5.4	0
0	5337	5.45	1
0	5338	5.45	2
0	5339	5.45	1
0	5340	5.45	1
0	5341	5.45	1
0	5342	5.45	0
0	5366	5.5	1
0	5367	5.5	2
0	5368	5.5	1
0	5369	5.5	1
0	5370	5.5	1
0	5371	5.5	0
0	5372	5.5	1
0	5373	5.5	2
0	5374	5.5	1
0	5375	5.5	1
0	5376	5.5	1
0	5377	5.5	0
0	5475	5.55	1
0	5476	5.55	2
0	5477	5.55	1
0	5478	5.55	1
0	5479	5.55	1
0	5480	5.55	0
0	5499	5.6	1
0	5500	5.6	2
0	5501	5.6	1
0	5502	5.6	1
0	5503	5.6	1
0	5504	5.6	0
0	5505	5.6	1
0	5506	5.6	2
0	5507	5.6	1
0	5508	5.6	1
0	5509	5.6	1
0	5510	5.6	0
0	5539	5.65	1
0	5540	5.65	2
0	5541	5.65	1
0	5542	5.65	1
0	5543	5.65	1
0	5544	5.65	0
0	5563	5.7	1
0	5564	5.7	2
0	5565	5.7	1
0	5566	5.7	1
0	5567	5.7	1
0	5568	5.7	0
0	5569	5.7	1
0	5570	5.7	2
0	5571	5.7	1
0	5572	5.7	1
0	5573	5.7	1
0	5574	5.7	0
0	5603	5.75	1
0	5604	5.75	2
0	5605	5.75	1
0	5606	5.75	1
0	5607	5.75	1
0	5608	5.75	0
0	5627	5.8	1
0	5628	5.8	2
0	5629	5.8	1
0	5630	5.8	1
0	5631	5.8	1
0	5632	5.8	0
0	5633	5.8	1
0	5634	5.8	2
0	5635	5.8	1
0	5636	5.8	1
0	5637	5.8	1
0	5638	5.8	0
0	5667	5.85	1
0	5668	5.85	2
0	5669	5.85	1
0	5670	5.85	1
0	5671	5.85	1
0	5672	5.85	0
0	5691	5.9	1
0	5692	5.9	2
0	5693	5.9	1
0	5694	5.9	1
0	5695	5.9	1
0	5696	5.9	0
0	5697	5.9	1
0	5698	5.9	2
0	5699	5.9	1
0	5700	5.9	1
0	5701	5.9	1
0	5702	5.9	0
0	5731	5.95	1
0	5732	5.95	2
0	5733	5.95	1
0	5734	5.95	1
0	5735	5.95	1
0	5736	5.95	0
0	5760	6	1
0	5761	6	2
0	5762	6	1
0	5763	6	1
0	5764	6	1
0	5765	6	0
0	5766	6	1
0	5767	6	2
0	5768	6	1
0	5769	6	1
0	5770	6	1
0	5771	6	0
0	5800	6.05	1
0	5801	6.05	2
0	5802	6.05	1
0	5803	6.05	1
0	5804	6.05	1
0	5805	6.05	0
0	5894	6.1	1
0	5895	6.1	2
0	5896	6.1	1
0	5897	6.1	1
0	5898	6.1	1
0	5899	6.1	0
0	5900	6.1	1
0	5901	6.1	2
0	5902	6.1	1
0	5903	6.1	1
0	5904	6.1	1
0	5905	6.1	0
0	5934	6.15	1
0	5935	6.15	2
0	5936	6.15	1
0	5937	6.15	1
0	5938	6.15	1
0	5939	6.15	0
0	5958	6.2	1
0	5959	6.2	2
0	5960	6.2	1
0	5961	6.2	1
0	5962	6.2	1
0	5963	6.2	0
0	5964	6.2	1
0	5965	6.2	2
0	5966	6.2	1
0	5967	6.2	1
0	5968	6.2	1
0	5969	6.2	0
0	6012	6.25	1
0	6013	6.25	2
0	6014	6.25	1
0	6015	6.25	1
0	6016	6.25	1
0	6017	6.25	0
0	6036	6.3	1
0	6037	6.3	2
0	6038	6.3	1
0	6039	6.3	1
0	6040	6.3	1
0	6041	6.3	0
0	6042	6.3	1
0	6043	6.3	2
0	6044	6.3	1
0	6045	6.3	1
0	6046	6.3	1
0	6047	6.3	0
0	6076	6.35	1
0	6077	6.35	2
0	6078	6.35	1
0	6079	6.35	1
0	6080	6.35	1
0	6081	6.35	0
0	6100	6.4	1
0	6101	6.4	2
0	6102	6.4	1
0	6103	6.4	1
0	6104	6.4	1
0	6105	6.4	0
0	6106	6.4	1
0	6107	6.4	2
0	6108	6.4	1
0	6109	6.4	1
0	6110	6.4	1
0	6111	6.4	0
0	6140	6.45	1
0	6141	6.45	2
0	6142	6.45	1
0	6143	6.45	1
0	6144	6.45	1
0	6145	6.45	0
0	6169	6.5	1
0	6170	6.5	2
0	6171	6.5	1
0	6172	6.5	1
0	6173	6.5	1
0	6174	6.5	0
0	6175	6.5	1
0	6176	6.5	2
0	6177	6.5	1
0	6178	6.5	1
0	6179	6.5	1
0	6180	6.5	0
0	6209	6.55	1
0	6210	6.55	2
0	6211	6.55	1
0	6212	6.55	1
0	6213	6.55	1
0	6214	6.55	0
0	6233	6.6	1
0	6234	6.6	2
0	6235	6.6	1
0	6236	6.6	1
0	6237	6.6	1
0	6238	6.6	0
0	6239	6.6	1
0	6240	6.6	2
0	6241	6.6	1
0	6242	6.6	1
0	6243	6.6	1
0	6244	6.6	0
0	6756	6.65	1
0	6757	6.65	2
0	6758	6.65	1
0	6759	6.65	1
0	6760	6.65	1
0	6761	6.65	0
0	6856	6.7	1
0	6857	6.7	2
0	6858	6.7	1
0	6859	6.7	1
0	6860	6.7	1
0	6861	6.7	0
0	6862	6.7	1
0	6863	6.7	2
0	6864	6.7	1
0	6865	6.7	1
0	6866	6.7	1
0	6867	6.7	0
0	6963	6.75	1
0	6964	6.75	2
0	6965	6.75	1
0	6966	6.75	1
0	6967	6.75	1
0	6968	6.75	0
0	7075	6.8	1
0	7076	6.8	2
0	7077	6.8	1
0	7078	6.8	1
0	7079	6.8	1
0	7080	6.8	0
0	7081	6.8	1
0	7082	6.8	2
0	7083	6.8	1
0	7084	6.8	1
0	7085	6.8	1
0	7086	6.8	0
0	7176	6.85	1
0	7177	6.85	2
0	7178	6.85	1
0	7179	6.85	1
0	7180	6.85	1
0	7181	6.85	0
0	7270	6.9	1
0	7271	6.9	2
0	7272	6.9	1
0	7273	6.9	1
0	7274	6.9	1
0	7275	6.9	0
0	7276	6.9	1
0	7277	6.9	2
0	7278	6.9	1
0	7279	6.9	1
0	7280	6.9	1
0	7281	6.9	0
0	7384	6.95	1
0	7385	6.95	2
0	7386	6.95	1
0	7387	6.95	1
0	7388	6.95	1
0	7389	6.95	0
0	7474	7	1
0	7475	7	2
0	7476	7	1
0	7477	7	1
0	7478	7	1
0	7479	7	0
0	7480	7	1
0	7481	7	2
0	7482	7	1
0	7483	7	1
0	7484	7	1
0	7485	7	0
0	7581	7.05	1
0	7582	7.05	2
0	7583	7.05	1
0	7584	7.05	1
0	7585	7.05	1
0	7586	7.05	0
0	7681	7.1	1
0	7682	7.1	2
0	7683	7.1	1
0	7684	7.1	1
0	7685	7.1	1
0	7686	7.1	0
0	7687	7.1	1
0	7688	7.1	2
0	7689	7.1	1
0	7690	7.1	1
0	7691	7.1	1
0	7692	7.1	0
0	7777	7.15	1
0	7778	7.15	2
0	7779	7.15	1
0	7780	7.15	1
0	7781	7.15	1
0	7782	7.15	0
0	8118	7.2	1
0	8119	7.2	2
0	8120	7.2	1
0	8121	7.2	1
0	8122	7.2	1
0	8123	7.2	0
0	8124	7.2	1
0	8125	7.2	2
0	8126	7.2	1
0	8127	7.2	1
0	8128	7.2	1
0	8129	7.2	0
0	8264	7.25	1
0	8265	7.25	2
0	8266	7.25	1
0	8267	7.25	1
0	8268	7.25	1
0	8269	7.25	0
0	8383	7.3	1
0	8384	7.3	2
0	8385	7.3	1
0	8386	7.3	1
0	8387	7.3	1
0	8388	7.3	0
0	8389	7.3	1
0	8390	7.3	2
0	8391	7.3	1
0	8392	7.3	1
0	8393	7.3	1
0	8394	7.3	0
0	8530	7.35	1
0	8531	7.35	2
0	8532	7.35	1
0	8533	7.35	1
0	8534	7.35	1
0	8535	7.35	0
0	8660	7.4	1
0	8661	7.4	2
0	8662	7.4	1
0	8663	7.4	1
0	8664	7.4	1
0	8665	7.4	0
0	8666	7.4	1
0	8667	7.4	2
0	8668	7.4	1
0	8669	7.4	1
0	8670	7.4	1
0	8671	7.4	0
0	8805	7.45	1
0	8806	7.45	2
0	8807	7.45	1
0	8808	7.45	1
0	8809	7.45	1
0	8810	7.45	0
0	8936	7.5	1
0	8937	7.5	2
0	8938	7.5	1
0	8939	7.5	1
0	8940	7.5	1
0	8941	7.5	0
0	8942	7.5	1
0	8943	7.5	2
0	8944	7.5	1
0	8945	7.5	1
0	8946	7.5	1
0	8947	7.5	0
0	9070	7.55	1
0	9071	7.55	2
0	9072	7.55	1
0	9073	7.55	1
0	9074	7.55	1
0	9075	7.55	0
0	9198	7.6	1
0	9199	7.6	2
0	9200	7.6	1
0	9201	7.6	1
0	9202	7.6	1
0	9203	7.6	0
0	9204	7.6	1
0	9205	7.6	2
0	9206	7.6	1
0	9207	7.6	1
0	9208	7.6	1
0	9209	7.6	0
0	9339	7.65	1
0	9340	7.65	2
0	9341	7.65	1
0	9342	7.65	1
0	9343	7.65	1
0	9344	7.65	0
0	9458	7.7	1
0	9459	7.7	2
0	9460	7.7	1
0	9461	7.7	1
0	9462	7.7	1
0	9463	7.7	0
0	9464	7.7	1
0	9465	7.7	2
0	9466	7.7	1
0	9467	7.7	1
0	9468	7.7	1
0	9469	7.7	0
0	9620	7.75	1
0	9621	7.75	2
0	9622	7.75	1
0	9623	7.75	1
0	9624	7.75	1
0	9625	7.75	0
0	9738	7.8	1
0	9739	7.8	2
0	9740	7.8	1
0	9741	7.8	1
0	9742	7.8	1
0	9743	7.8	0
0	9744	7.8	1
0	9745	7.8	2
0	9746	7.8	1
0	9747	7.8	1
0	9748	7.8	1
0	9749	7.8	0
0	9898	7.85	1
0	9899	7.85	2
0	9900	7.85	1
0	9901	7.85	1
0	9902	7.85	1
0	9903	7.85	0
0	10024	7.9	1
0	10025	7.9	2
0	10026	7.9	1
0	10027	7.9	1
0	10028	7.9	1
0	10029	7.9	0
0	10030	7.9	1
0	10031	7.9	2
0	10032	7.9	1
0	10033	7.9	1
0	10034	7.9	1
0	10035	7.9	0
0	10163	7.95	1
0	10164	7.95	2
0	10165	7.95	1
0	10166	7.95	1
0	10167	7.95	1
0	10168	7.95	0
0	10291	8	1
0	10292	8	2
0	10293	8	1
0	10294	8	1
0	10295	8	1
0	10296	8	0
0	10297	8	1
0	10298	8	2
0	10299	8	1
0	10300	8	1
0	10301	8	1
0	10302	8	0
0	10463	8.05	1
0	10464	8.05	2
0	10465	8.05	1
0	10466	8.05	1
0	10467	8.05	1
0	10468	8.05	0
0	10604	8.1	1
0	10605	8.1	2
0	10606	8.1	1
0	10607	8.1	1
0	10608	8.1	1
0	10609	8.1	0
0	10610	8.1	1
0	10611	8.1	2
0	10612	8.1	1
0	10613	8.1	1
0	10614	8.1	1
0	10615	8.1	0
0	10750	8.15	1
0	10751	8.15	2
0	10752	8.15	1
0	10753	8.15	1
0	10754	8.15	1
0	10755	8.15	0
0	10901	8.2	1
0	10902	8.2	2
0	10903	8.2	1
0	10904	8.2	1
0	10905	8.2	1
0	10906	8.2	0
0	10907	8.2	1
0	10908	8.2	2
0	10909	8.2	1
0	10910	8.2	1
0	10911	8.2	1
0	10912	8.2	0
0	11016	8.25	1
0	11017	8.25	2
0	11018	8.25	1
0	11019	8.25	1
0	11020	8.25	1
0	11021	8.25	0
0	11073	8.3	1
0	11074	8.3	2
0	11075	8.3	1
0	11076	8.3	1
0	11077	8.3	1
0	11078	8.3	0
0	11079	8.3	1
0	11080	8.3	2
0	11081	8.3	1
0	11082	8.3	1
0	11083	8.3	1
0	11084	8.3	0
0	11176	8.35	1
0	11177	8.35	2
0	11178	8.35	1
0	11179	8.35	1
0	11180	8.35	1
0	11181	8.35	0
0	11237	8.4	1
0	11238	8.4	2
0	11239	8.4	1
0	11240	8.4	1
0	11241	8.4	1
0	11242	8.4	0
0	11243	8.4	1
0	11244	8.4	2
0	11245	8.4	1
0	11246	8.4	1
0	11247	8.4	1
0	11248	8.4	0
0	11298	8.45	1
0	11299	8.45	2
0	11300	8.45	1
0	11301	8.45	1
0	11302	8.45	1
0	11303	8.45	0
0	11362	8.5	1
0	11363	8.5	2
0	11364	8.5	1
0	11365	8.5	1
0	11366	8.5	1
0	11367	8.5	0
0	11368	8.5	1
0	11369	8.5	2
0	11370	8.5	1
0	11371	8.5	1
0	11372	8.5	1
0	11373	8.5	0
0	11438	8.55	1
0	11439	8.55	2
0	11440	8.55	1
0	11441	8.55	1
0	11442	8.55	1
0	11443	8.55	0
0	11468	8.6	1
0	11469	8.6	2
0	11470	8.6	1
0	11471	8.6	1
0	11472	8.6	1
0	11473	8.6	0
0	11474	8.6	1
0	11475	8.6	2
0	11476	8.6	1
0	11477	8.6	1
0	11478	8.6	1
0	11479	8.6	0
0	11508	8.65	1
0	11509	8.65	2
0	11510	8.65	1
0	11511	8.65	1
0	11512	8.65	1
0	11513	8.65	0
0	11532	8.7	1
0	11533	8.7	2
0	11534	8.7	1
0	11535	8.7	1
0	11536	8.7	1
0	11537	8.7	0
0	11538	8.7	1
0	11539	8.7	2
0	11540	8.7	1
0	11541	8.7	1
0	11542	8.7	1
0	11543	8.7	0
0	11582	8.75	1
0	11583	8.75	2
0	11584	8.75	1
0	11585	8.75	1
0	11586	8.75	1
0	11587	8.75	0
0	11606	8.8	1
0	11607	8.8	2
0	11608	8.8	1
0	11609	8.8	1
0	11610	8.8	1
0	11611	8.8	0
0	11612	8.8	1
0	11613	8.8	2
0	11614	8.8	1
0	11615	8.8	1
0	11616	8.8	1
0	11617	8.8	0
0	11646	8.85	1
0	11647	8.85	2
0	11648	8.85	1
0	11649	8.85	1
0	11650	8.85	1
0	11651	8.85	0
0	11684	8.9	1
0	11685	8.9	2
0	11686	8.9	1
0	11687	8.9	1
0	11688	8.9	1
0	11689	8.9	0
0	11690	8.9	1
0	11691	8.9	2
0	11692	8.9	1
0	11693	8.9	1
0	11694	8.9	1
0	11695	8.9	0
0	11738	8.95	1
0	11739	8.95	2
0	11740	8.95	1
0	11741	8.95	1
0	11742	8.95	1
0	11743	8.95	0
0	11762	9	1
0	11763	9	2
0	11764	9	1
0	11765	9	1
0	11766	9	1
0	11767	9	0
0	11768	9	1
0	11769	9	2
0	11770	9	1
0	11771	9	1
0	11772	9	1
0	11773	9	0
0	11802	9.05	1
0	11803	9.05	2
0	11804	9.05	1
0	11805	9.05	1
0	11806	9.05	1
0	11807	9.05	0
0	11872	9.1	1
0	11873	9.1	2
0	11874	9.1	1
0	11875	9.1	1
0	11876	9.1	1
0	11877	9.1	0
0	11878	9.1	1
0	11879	9.1	2
0	11880	9.1	1
0	11881	9.1	1
0	11882	9.1	1
0	11883	9.1	0
0	11948	9.15	1
0	11949	9.15	2
0	11950	9.15	1
0	11951	9.15	1
0	11952	9.15	1
0	11953	9.15	0
0	11976	9.2	1
0	11977	9.2	2
0	11978	9.2	1
0	11979	9.2	1
0	11980	9.2	1
0	11981	9.2	0
0	11982	9.2	1
0	11983	9.2	2
0	11984	9.2	1
0	11985	9.2	1
0	11986	9.2	1
0	11987	9.2	0
0	12016	9.25	1
0	12017	9.25	2
0	12018	9.25	1
0	12019	9.25	1
0	12020	9.25	1
0	12021	9.25	0
0	12054	9.3	1
0	12055	9.3	2
0	12056	9.3	1
0	12057	9.3	1
0	12058	9.3	1
0	12059	9.3	0
0	12060	9.3	1
0	12061	9.3	2
0	12062	9.3	1
0	12063	9.3	1
0	12064	9.3	1
0	12065	9.3	0
0	12094	9.35	1
0	12095	9.35	2
0	12096	9.35	1
0	12097	9.35	1
0	12098	9.35	1
0	12099	9.35	0
0	12118	9.4	1
0	12119	9.4	2
0	12120	9.4	1
0	12121	9.4	1
0	12122	9.4	1
0	12123	9.4	0
0	12124	9.4	1
0	12125	9.4	2
0	12126	9.4	1
0	12127	9.4	1
0	12128	9.4	1
0	12129	9.4	0
0	12172	9.45	1
0	12173	9.45	2
0	12174	9.45	1
0	12175	9.45	1
0	12176	9.45	1
0	12177	9.45	0
0	12210	9.5	1
0	12211	9.5	2
0	12212	9.5	1
0	12213	9.5	1
0	12214	9.5	1
0	12215	9.5	0
0	12216	9.5	1
0	12217	9.5	2
0	12218	9.5	1
0	12219	9.5	1
0	12220	9.5	1
0	12221	9.5	0
0	12250	9.55	1
0	12251	9.55	2
0	12252	9.55	1
0	12253	9.55	1
0	12254	9.55	1
0	12255	9.55	0
0	12274	9.6	1
0	12275	9.6	2
0	12276	9.6	1
0	12277	9.6	1
0	12278	9.6	1
0	12279	9.6	0
0	12280	9.6	1
0	12281	9.6	2
0	12282	9.6	1
0	12283	9.6	1
0	12284	9.6	1
0	12285	9.6	0
0	12328	9.65	1
0	12329	9.65	2
0	12330	9.65	1
0	12331	9.65	1
0	12332	9.65	1
0	12333	9.65	0
0	12352	9.7	1
0	12353	9.7	2
0	12354	9.7	1
0	12355	9.7	1
0	12356	9.7	1
0	12357	9.7	0
0	12358	9.7	1
0	12359	9.7	2
0	12360	9.7	1
0	12361	9.7	1
0	12362	9.7	1
0	12363	9.7	0
0	12392	9.75	1
0	12393	9.75	2
0	12394	9.75	1
0	12395	9.75	1
0	12396	9.75	1
0	12397	9.75	0
0	12430	9.8	1
0	12431	9.8	2
0	12432	9.8	1
0	12433	9.8	1
0	12434	9.8	1
0	12435	9.8	0
0	12436	9.8	1
0	12437	9.8	2
0	12438	9.8	1
0	12439	9.8	1
0	12440	9.8	1
0	12441	9.8	0
0	12484	9.85	1
0	12485	9.85	2
0	12486	9.85	1
0	12487	9.85	1
0	12488	9.85	1
0	12489	9.85	0
0	12508	9.9	1
0	12509	9.9	2
0	12510	9.9	1
0	12511	9.9	1
0	12512	9.9	1
0	12513	9.9	0
0	12514	9.9	1
0	12515	9.9	2
0	12516	9.9	1
0	12517	9.9	1
0	12518	9.9	1
0	12519	9.9	0
0	12558	9.95	1
0	12559	9.95	2
0	12560	9.95	1
0	12561	9.95	1
0	12562	9.95	1
0	12563	9.95	0
0	12597	10	1
0	12598	10	2
0	12599	10	1
0	12600	10	1
0	12601	10	1
0	12602	10	0
0	12603	10	1
0	12604	10	2
0	12605	10	1
0	12606	10	1
0	12607	10	1
0	12608	10	0
0	12651	10.05	1
0	12652	10.05	2
0	12653	10.05	1
0	12654	10.05	1
0	12655	10.05	1
0	12656	10.05	0
0	12675	10.1	1
0	12676	10.1	2
0	12677	10.1	1
0	12678	10.1	1
0	12679	10.1	1
0	12680	10.1	0
0	12681	10.1	1
0	12682	10.1	2
0	12683	10.1	1
0	12684	10.1	1
0	12685	10.1	1
0	12686	10.1	0
0	12715	10.15	1
0	12716	10.15	2
0	12717	10.15	1
0	12718	10.15	1
0	12719	10.15	1
0	12720	10.15	0
0	12742	10.2	1
0	12743	10.2	2
0	12744	10.2	1
0	12745	10.2	1
0	12746	10.2	1
0	12747	10.2	0
0	12748	10.2	1
0	12749	10.2	2
0	12750	10.2	1
0	12751	10.2	1
0	12752	10.2	1
0	12753	10.2	0
0	12782	10.25	1
0	12783	10.25	2
0	12784	10.25	1
0	12785	10.25	1
0	12786	10.25	1
0	12787	10.25	0
0	12806	10.3	1
0	12807	10.3	2
0	12808	10.3	1
0	12809	10.3	1
0	12810	10.3	1
0	12811	10.3	0
0	12812	10.3	1
0	12813	10.3	2
0	12814	10.3	1
0	12815	10.3	1
0	12816	10.3	1
0	12817	10.3	0
0	12860	10.35	1
0	12861	10.35	2
0	12862	10.35	1
0	12863	10.35	1
0	12864	10.35	1
0	12865	10.35	0
0	12887	10.4	1
0	12888	10.4	2
0	12889	10.4	1
0	12890	10.4	1
0	12891	10.4	1
0	12892	10.4	0
0	12893	10.4	1
0	12894	10.4	2
0	12895	10.4	1
0	12896	10.4	1
0	12897	10.4	1
0	12898	10.4	0
0	12927	10.45	1
0	12928	10.45	2
0	12929	10.45	1
0	12930	10.45	1
0	12931	10.45	1
0	12932	10.45	0
0	12965	10.5	1
0	12966	10.5	2
0	12967	10.5	1
0	12968	10.5	1
0	12969	10.5	1
0	12970	10.5	0
0	12971	10.5	1
0	12972	10.5	2
0	12973	10.5	1
0	12974	10.5	1
0	12975	10.5	1
0	12976	10.5	0
0	13005	10.55	1
0	13006	10.55	2
0	13007	10.55	1
0	13008	10.55	1
0	13009	10.55	1
0	13010	10.55	0
0	13029	10.6	1
0	13030	10.6	2
0	13031	10.6	1
0	13032	10.6	1
0	13033	10.6	1
0	13034	10.6	0
0	13035	10.6	1
0	13036	10.6	2
0	13037	10.6	1
0	13038	10.6	1
0	13039	10.6	1
0	13040	10.6	0
0	13069	10.65	1
0	13070	10.65	2
0	13071	10.65	1
0	13072	10.65	1
0	13073	10.65	1
0	13074	10.65	0
0	13093	10.7	1
0	13094	10.7	2
0	13095	10.7	1
0	13096	10.7	1
0	13097	10.7	1
0	13098	10.7	0
0	13099	10.7	1
0	13100	10.7	2
0	13101	10.7	1
0	13102	10.7	1
0	13103	10.7	1
0	13104	10.7	0
0	13133	10.75	1
0	13134	10.75	2
0	13135	10.75	1
0	13136	10.75	1
0	13137	10.75	1
0	13138	10.75	0
0	13157	10.8	1
0	13158	10.8	2
0	13159	10.8	1
0	13160	10.8	1
0	13161	10.8	1
0	13162	10.8	0
0	13163	10.8	1
0	13164	10.8	2
0	13165	10.8	1
0	13166	10.8	1
0	13167	10.8	1
0	13168	10.8	0
0	13197	10.85	1
0	13198	10.85	2
0	13199	10.85	1
0	13200	10.85	1
0	13201	10.85	1
0	13202	10.85	0
0	13235	10.9	1
0	13236	10.9	2
0	13237	10.9	1
0	13238	10.9	1
0	13239	10.9	1
0	13240	10.9	0
0	13241	10.9	1
0	13242	10.9	2
0	13243	10.9	1
0	13244	10.9	1
0	13245	10.9	1
0	13246	10.9	0
0	13275	10.95	1
0	13276	10.95	2
0	13277	10.95	1
0	13278	10.95	1
0	13279	10.95	1
0	13280	10.95	0
0	13299	11	1
0	13300	11	2
0	13301	11	1
0	13302	11	1
0	13303	11	1
0	13304	11	0
0	13305	11	1
0	13306	11	2
0	13307	11	1
0	13308	11	1
0	13309	11	1
0	13310	11	0
0	13353	11.05	1
0	13354	11.05	2
0	13355	11.05	1
0	13356	11.05	1
0	13357	11.05	1
0	13358	11.05	0
0	13377	11.1	1
0	13378	11.1	2
0	13379	11.1	1
0	13380	11.1	1
0	13381	11.1	1
0	13382	11.1	0
0	13383	11.1	1
0	13384	11.1	2
0	13385	11.1	1
0	13386	11.1	1
0	13387	11.1	1
0	13388	11.1	0
0	13417	11.15	1
0	13418	11.15	2
0	13419	11.15	1
0	13420	11.15	1
0	13421	11.15	1
0	13422	11.15	0
0	13441	11.2	1
0	13442	11.2	2
0	13443	11.2	1
0	13444	11.2	1
0	13445	11.2	1
0	13446	11.2	0
0	13447	11.2	1
0	13448	11.2	2
0	13449	11.2	1
0	13450	11.2	1
0	13451	11.2	1
0	13452	11.2	0
0	13481	11.25	1
0	13482	11.25	2
0	13483	11.25	1
0	13484	11.25	1
0	13485	11.25	1
0	13486	11.25	0
0	13505	11.3	1
0	13506	11.3	2
0	13507	11.3	1
0	13508	11.3	1
0	13509	11.3	1
0	13510	11.3	0
0	13511	11.3	1
0	13512	11.3	2
0	13513	11.3	1
0	13514	11.3	1
0	13515	11.3	1
0	13516	11.3	0
0	13545	11.35	1
0	13546	11.35	2
0	13547	11.35	1
0	13548	11.35	1
0	13549	11.35	1
0	13550	11.35	0
0	13569	11.4	1
0	13570	11.4	2
0	13571	11.4	1
0	13572	11.4	1
0	13573	11.4	1
0	13574	11.4	0
0	13575	11.4	1
0	13576	11.4	2
0	13577	11.4	1
0	13578	11.4	1
0	13579	11.4	1
0	13580	11.4	0
0	13623	11.45	1
0	13624	11.45	2
0	13625	11.45	1
0	13626	11.45	1
0	13627	11.45	1
0	13628	11.45	0
0	13647	11.5	1
0	13648	11.5	2
0	13649	11.5	1
0	13650	11.5	1
0	13651	11.5	1
0	13652	11.5	0
0	13653	11.5	1
0	13654	11.5	2
0	13655	11.5	1
0	13656	11.5	1
0	13657	11.5	1
0	13658	11.5	0
0	13687	11.55	1
0	13688	11.55	2
0	13689	11.55	1
0	13690	11.55	1
0	13691	11.55	1
0	13692	11.55	0
0	13739	11.6	1
0	13740	11.6	2
0	13741	11.6	1
0	13742	11.6	1
0	13743	11.6	1
0	13744	11.6	0
0	13745	11.6	1
0	13746	11.6	2
0	13747	11.6	1
0	13748	11.6	1
0	13749	11.6	1
0	13750	11.6	0
0	13793	11.65	1
0	13794	11.65	2
0	13795	11.65	1
0	13796	11.65	1
0	13797	11.65	1
0	13798	11.65	0
0	13817	11.7	1
0	13818	11.7	2
0	13819	11.7	1
0	13820	11.7	1
0	13821	11.7	1
0	13822	11.7	0
0	13823	11.7	1
0	13824	11.7	2
0	13825	11.7	1
0	13826	11.7	1
0	13827	11.7	1
0	13828	11.7	0
0	13871	11.75	1
0	13872	11.75	2
0	13873	11.75	1
0	13874	11.75	1
0	13875	11.75	1
0	13876	11.75	0
0	13909	11.8	1
0	13910	11.8	2
0	13911	11.8	1
0	13912	11.8	1
0	13913	11.8	1
0	13914	11.8	0
0	13915	11.8	1
0	13916	11.8	2
0	13917	11.8	1
0	13918	11.8	1
0	13919	11.8	1
0	13920	11.8	0
0	13949	11.85	1
0	13950	11.85	2
0	13951	11.85	1
0	13952	11.85	1
0	13953	11.85	1
0	13954	11.85	0
0	13973	11.9	1
0	13974	11.9	2
0	13975	11.9	1
0	13976	11.9	1
0	13977	11.9	1
0	13978	11.9	0
0	13979	11.9	1
0	13980	11.9	2
0	13981	11.9	1
0	13982	11.9	1
0	13983	11.9	1
0	13984	11.9	0
0	14013	11.95	1
0	14014	11.95	2
0	14015	11.95	1
0	14016	11.95	1
0	14017	11.95	1
0	14018	11.95	0
0	14056	12	1
0	14057	12	2
0	14058	12	1
0	14059	12	1
0	14060	12	1
0	14061	12	0
0	14062	12	1
0	14063	12	2
0	14064	12	1
0	14065	12	1
0	14066	12	1
0	14067	12	0
0	14096	12.05	1
0	14097	12.05	2
0	14098	12.05	1
0	14099	12.05	1
0	14100	12.05	1
0	14101	12.05	0
0	14120	12.1	1
0	14121	12.1	2
0	14122	12.1	1
0	14123	12.1	1
0	14124	12.1	1
0	14125	12.1	0
0	14126	12.1	1
0	14127	12.1	2
0	14128	12.1	1
0	14129	12.1	1
0	14130	12.1	1
0	14131	12.1	0
0	14188	12.15	1
0	14189	12.15	2
0	14190	12.15	1
0	14191	12.15	1
0	14192	12.15	1
0	14193	12.15	0
0	14226	12.2	1
0	14227	12.2	2
0	14228	12.2	1
0	14229	12.2	1
0	14230	12.2	1
0	14231	12.2	0
0	14232	12.2	1
0	14233	12.2	2
0	14234	12.2	1
0	14235	12.2	1
0	14236	12.2	1
0	14237	12.2	0
0	14266	12.25	1
0	14267	12.25	2
0	14268	12.25	1
0	14269	12.25	1
0	14270	12.25	1
0	14271	12.25	0
0	14304	12.3	1
0	14305	12.3	2
0	14306	12.3	1
0	14307	12.3	1
0	14308	12.3	1
0	14309	12.3	0
0	14310	12.3	1
0	14311	12.3	2
0	14312	12.3	1
0	14313	12.3	1
0	14314	12.3	1
0	14315	12.3	0
0	14358	12.35	1
0	14359	12.35	2
0	14360	12.35	1
0	14361	12.35	1
0	14362	12.35	1
0	14363	12.35	0
0	14382	12.4	1
0	14383	12.4	2
0	14384	12.4	1
0	14385	12.4	1
0	14386	12.4	1
0	14387	12.4	0
0	14388	12.4	1
0	14389	12.4	2
0	14390	12.4	1
0	14391	12.4	1
0	14392	12.4	1
0	14393	12.4	0
0	14422	12.45	1
0	14423	12.45	2
0	14424	12.45	1
0	14425	12.45	1
0	14426	12.45	1
0	14427	12.45	0
0	14446	12.5	1
0	14447	12.5	2
0	14448	12.5	1
0	14449	12.5	1
0	14450	12.5	1
0	14451	12.5	0
0	14452	12.5	1
0	14453	12.5	2
0	14454	12.5	1
0	14455	12.5	1
0	14456	12.5	1
0	14457	12.5	0
0	14500	12.55	1
0	14501	12.55	2
0	14502	12.55	1
0	14503	12.55	1
0	14504	12.55	1
0	14505	12.55	0
0	14524	12.6	1
0	14525	12.6	2
0	14526	12.6	1
0	14527	12.6	1
0	14528	12.6	1
0	14529	12.6	0
0	14530	12.6	1
0	14531	12.6	2
0	14532	12.6	1
0	14533	12.6	1
0	14534	12.6	1
0	14535	12.6	0
0	14564	12.65	1
0	14565	12.65	2
0	14566	12.65	1
0	14567	12.65	1
0	14568	12.65	1
0	14569	12.65	0
0	14616	12.7	1
0	14617	12.7	2
0	14618	12.7	1
0	14619	12.7	1
0	14620	12.7	1
0	14621	12.7	0
0	14622	12.7	1
0	14623	12.7	2
0	14624	12.7	1
0	14625	12.7	1
0	14626	12.7	1
0	14627	12.7	0
0	14670	12.75	1
0	14671	12.75	2
0	14672	12.75	1
0	14673	12.75	1
0	14674	12.75	1
0	14675	12.75	0
0	14694	12.8	1
0	14695	12.8	2
0	14696	12.8	1
0	14697	12.8	1
0	14698	12.8	1
0	14699	12.8	0
0	14700	12.8	1
0	14701	12.8	2
0	14702	12.8	1
0	14703	12.8	1
0	14704	12.8	1
0	14705	12.8	0
0	14748	12.85	1
0	14749	12.85	2
0	14750	12.85	1
0	14751	12.85	1
0	14752	12.85	1
0	14753	12.85	0
0	14786	12.9	1
0	14787	12.9	2
0	14788	12.9	1
0	14789	12.9	1
0	14790	12.9	1
0	14791	12.9	0
0	14792	12.9	1
0	14793	12.9	2
0	14794	12.9	1
0	14795	12.9	1
0	14796	12.9	1
0	14797	12.9	0
0	14826	12.95	1
0	14827	12.95	2
0	14828	12.95	1
0	14829	12.95	1
0	14830	12.95	1
0	14831	12.95	0
0	14850	13	1
0	14851	13	2
0	14852	13	1
0	14853	13	1
0	14854	13	1
0	14855	13	0
0	14856	13	1
0	14857	13	2
0	14858	13	1
0	14859	13	1
0	14860	13	1
0	14861	13	0
0	14890	13.05	1
0	14891	13.05	2
0	14892	13.05	1
0	14893	13.05	1
0	14894	13.05	1
0	14895	13.05	0
0	14928	13.1	1
0	14929	13.1	2
0	14930	13.1	1
0	14931	13.1	1
0	14932	13.1	1
0	14933	13.1	0
0	14934	13.1	1
0	14935	13.1	2
0	14936	13.1	1
0	14937	13.1	1
0	14938	13.1	1
0	14939	13.1	0
0	14968	13.15	1
0	14969	13.15	2
0	14970	13.15	1
0	14971	13.15	1
0	14972	13.15	1
0	14973	13.15	0
0	14992	13.2	1
0	14993	13.2	2
0	14994	13.2	1
0	14995	13.2	1
0	14996	13.2	1
0	14997	13.2	0
0	14998	13.2	1
0	14999	13.2	2
0	15000	13.2	1
0	15001	13.2	1
0	15002	13.2	1
0	15003	13.2	0
0	15056	13.25	1
0	15057	13.25	2
0	15058	13.25	1
0	15059	13.25	1
0	15060	13.25	1
0	15061	13.25	0
0	15094	13.3	1
0	15095	13.3	2
0	15096	13.3	1
0	15097	13.3	1
0	15098	13.3	1
0	15099	13.3	0
0	15100	13.3	1
0	15101	13.3	2
0	15102	13.3	1
0	15103	13.3	1
0	15104	13.3	1
0	15105	13.3	0
0	15134	13.35	1
0	15135	13.35	2
0	15136	13.35	1
0	15137	13.35	1
0	15138	13.35	1
0	15139	13.35	0
0	15172	13.4	1
0	15173	13.4	2
0	15174	13.4	1
0	15175	13.4	1
0	15176	13.4	1
0	15177	13.4	0
0	15178	13.4	1
0	15179	13.4	2
0	15180	13.4	1
0	15181	13.4	1
0	15182	13.4	1
0	15183	13.4	0
0	15222	13.45	1
0	15223	13.45	2
0	15224	13.45	1
0	15225	13.45	1
0	15226	13.45	1
0	15227	13.45	0
0	15246	13.5	1
0	15247	13.5	2
0	15248	13.5	1
0	15249	13.5	1
0	15250	13.5	1
0	15251	13.5	0
0	15252	13.5	1
0	15253	13.5	2
0	15254	13.5	1
0	15255	13.5	1
0	15256	13.5	1
0	15257	13.5	0
0	15286	13.55	1
0	15287	13.55	2
0	15288	13.55	1
0	15289	13.55	1
0	15290	13.55	1
0	15291	13.55	0
0	15310	13.6	1
0	15311	13.6	2
0	15312	13.6	1
0	15313	13.6	1
0	15314	13.6	1
0	15315	13.6	0
0	15316	13.6	1
0	15317	13.6	2
0	15318	13.6	1
0	15319	13.6	1
0	15320	13.6	1
0	15321	13.6	0
0	15364	13.65	1
0	15365	13.65	2
0	15366	13.65	1
0	15367	13.65	1
0	15368	13.65	1
0	15369	13.65	0
0	15388	13.7	1
0	15389	13.7	2
0	15390	13.7	1
0	15391	13.7	1
0	15392	13.7	1
0	15393	13.7	0
0	15394	13.7	1
0	15395	13.7	2
0	15396	13.7	1
0	15397	13.7	1
0	15398	13.7	1
0	15399	13.7	0
0	15428	13.75	1
0	15429	13.75	2
0	15430	13.75	1
0	15431	13.75	1
0	15432	13.75	1
0	15433	13.75	0
0	15480	13.8	1
0	15481	13.8	2
0	15482	13.8	1
0	15483	13.8	1
0	15484	13.8	1
0	15485	13.8	0
0	15486	13.8	1
0	15487	13.8	2
0	15488	13.8	1
0	15489	13.8	1
0	15490	13.8	1
0	15491	13.8	0
0	15530	13.85	1
0	15531	13.85	2
0	15532	13.85	1
0	15533	13.85	1
0	15534	13.85	1
0	15535	13.85	0
0	15554	13.9	1
0	15555	13.9	2
0	15556	13.9	1
0	15557	13.9	1
0	15558	13.9	1
0	15559	13.9	0
0	15560	13.9	1
0	15561	13.9	2
0	15562	13.9	1
0	15563	13.9	1
0	15564	13.9	1
0	15565	13.9	0
0	15597	13.95	1
0	15598	13.95	2
0	15599	13.95	1
0	15600	13.95	1
0	15601	13.95	1
0	15602	13.95	0
0	15631	14	1
0	15632	14	2
0	15633	14	1
0	15634	14	1
0	15635	14	1
0	15636	14	0
0	15637	14	1
0	15638	14	2
0	15639	14	1
0	15640	14	1
0	15641	14	1
0	15642	14	0
0	15671	14.05	1
0	15672	14.05	2
0	15673	14.05	1
0	15674	14.05	1
0	15675	14.05	1
0	15676	14.05	0
0	15695	14.1	1
0	15696	14.1	2
0	15697	14.1	1
0	15698	14.1	1
0	15699	14.1	1
0	15700	14.1	0
0	15701	14.1	1
0	15702	14.1	2
0	15703	14.1	1
0	15704	14.1	1
0	15705	14.1	1
0	15706	14.1	0
0	15735	14.15	1
0	15736	14.15	2
0	15737	14.15	1
0	15738	14.15	1
0	15739	14.15	1
0	15740	14.15	0
0	15773	14.2	1
0	15774	14.2	2
0	15775	14.2	1
0	15776	14.2	1
0	15777	14.2	1
0	15778	14.2	0
0	15779	14.2	1
0	15780	14.2	2
0	15781	14.2	1
0	15782	14.2	1
0	15783	14.2	1
0	15784	14.2	0
0	15813	14.25	1
0	15814	14.25	2
0	15815	14.25	1
0	15816	14.25	1
0	15817	14.25	1
0	15818	14.25	0
0	15837	14.3	1
0	15838	14.3	2
0	15839	14.3	1
0	15840	14.3	1
0	15841	14.3	1
0	15842	14.3	0
0	15843	14.3	1
0	15844	14.3	2
0	15845	14.3	1
0	15846	14.3	1
0	15847	14.3	1
0	15848	14.3	0
0	15891	14.35	1
0	15892	14.35	2
0	15893	14.35	1
0	15894	14.35	1
0	15895	14.35	1
0	15896	14.35	0
0	15929	14.4	1
0	15930	14.4	2
0	15931	14.4	1
0	15932	14.4	1
0	15933	14.4	1
0	15934	14.4	0
0	15935	14.4	1
0	15936	14.4	2
0	15937	14.4	1
0	15938	14.4	1
0	15939	14.4	1
0	15940	14.4	0
0	15969	14.45	1
0	15970	14.45	2
0	15971	14.45	1
0	15972	14.45	1
0	15973	14.45	1
0	15974	14.45	0
0	15993	14.5	1
0	15994	14.5	2
0	15995	14.5	1
0	15996	14.5	1
0	15997	14.5	1
0	15998	14.5	0
0	15999	14.5	1
0	16000	14.5	2
0	16001	14.5	1
0	16002	14.5	1
0	16003	14.5	1
0	16004	14.5	0
0	16047	14.55	1
0	16048	14.55	2
0	16049	14.55	1
0	16050	14.55	1
0	16051	14.55	1
0	16052	14.55	0
0	16071	14.6	1
0	16072	14.6	2
0	16073	14.6	1
0	16074	14.6	1
0	16075	14.6	1
0	16076	14.6	0
0	16077	14.6	1
0	16078	14.6	2
0	16079	14.6	1
0	16080	14.6	1
0	16081	14.6	1
0	16082	14.6	0
0	16111	14.65	1
0	16112	14.65	2
0	16113	14.65	1
0	16114	14.65	1
0	16115	14.65	1
0	16116	14.65	0
0	16135	14.7	1
0	16136	14.7	2
0	16137	14.7	1
0	16138	14.7	1
0	16139	14.7	1
0	16140	14.7	0
0	16141	14.7	1
0	16142	14.7	2
0	16143	14.7	1
0	16144	14.7	1
0	16145	14.7	1
0	16146	14.7	0
0	16189	14.75	1
0	16190	14.75	2
0	16191	14.75	1
0	16192	14.75	1
0	16193	14.75	1
0	16194	14.75	0
0	16213	14.8	1
0	16214	14.8	2
0	16215	14.8	1
0	16216	14.8	1
0	16217	14.8	1
0	16218	14.8	0
0	16219	14.8	1
0	16220	14.8	2
0	16221	14.8	1
0	16222	14.8	1
0	16223	14.8	1
0	16224	14.8	0
0	16253	14.85	1
0	16254	14.85	2
0	16255	14.85	1
0	16256	14.85	1
0	16257	14.85	1
0	16258	14.85	0
0	16291	14.9	1
0	16292	14.9	2
0	16293	14.9	1
0	16294	14.9	1
0	16295	14.9	1
0	16296	14.9	0
0	16297	14.9	1
0	16298	14.9	2
0	16299	14.9	1
0	16300	14.9	1
0	16301	14.9	1
0	16302	14.9	0
0	16345	14.95	1
0	16346	14.95	2
0	16347	14.95	1
0	16348	14.95	1
0	16349	14.95	1
0	16350	14.95	0
0	16370	15	1
0	16371	15	2
0	16372	15	1
0	16373	15	1
0	16374	15	1
0	16375	15	0
0	16376	15	1
0	16377	15	2
0	16378	15	1
0	16379	15	1
0	16380	15	1
0	16381	15	0
0	16410	15.05	1
0	16411	15.05	2
0	16412	15.05	1
0	16413	15.05	1
0	16414	15.05	1
0	16415	15.05	0
0	16448	15.1	1
0	16449	15.1	2
0	16450	15.1	1
0	16451	15.1	1
0	16452	15.1	1
0	16453	15.1	0
0	16454	15.1	1
0	16455	15.1	2
0	16456	15.1	1
0	16457	15.1	1
0	16458	15.1	1
0	16459	15.1	0
0	16488	15.15	1
0	16489	15.15	2
0	16490	15.15	1
0	16491	15.15	1
0	16492	15.15	1
0	16493	15.15	0
0	16512	15.2	1
0	16513	15.2	2
0	16514	15.2	1
0	16515	15.2	1
0	16516	15.2	1
0	16517	15.2	0
0	16518	15.2	1
0	16519	15.2	2
0	16520	15.2	1
0	16521	15.2	1
0	16522	15.2	1
0	16523	15.2	0
0	16552	15.25	1
0	16553	15.25	2
0	16554	15.25	1
0	16555	15.25	1
0	16556	15.25	1
0	16557	15.25	0
0	16590	15.3	1
0	16591	15.3	2
0	16592	15.3	1
0	16593	15.3	1
0	16594	15.3	1
0	16595	15.3	0
0	16596	15.3	1
0	16597	15.3	2
0	16598	15.3	1
0	16599	15.3	1
0	16600	15.3	1
0	16601	15.3	0
0	16630	15.35	1
0	16631	15.35	2
0	16632	15.35	1
0	16633	15.35	1
0	16634	15.35	1
0	16635	15.35	0
0	16668	15.4	1
0	16669	15.4	2
0	16670	15.4	1
0	16671	15.4	1
0	16672	15.4	1
0	16673	15.4	0
0	16674	15.4	1
0	16675	15.4	2
0	16676	15.4	1
0	16677	15.4	1
0	16678	15.4	1
0	16679	15.4	0
0	16722	15.45	1
0	16723	15.45	2
0	16724	15.45	1
0	16725	15.45	1
0	16726	15.45	1
0	16727	15.45	0
0	16760	15.5	1
0	16761	15.5	2
0	16762	15.5	1
0	16763	15.5	1
0	16764	15.5	1
0	16765	15.5	0
0	16766	15.5	1
0	16767	15.5	2
0	16768	15.5	1
0	16769	15.5	1
0	16770	15.5	1
0	16771	15.5	0
0	16814	15.55	1
0	16815	15.55	2
0	16816	15.55	1
0	16817	15.55	1
0	16818	15.55	1
0	16819	15.55	0
0	16838	15.6	1
0	16839	15.6	2
0	16840	15.6	1
0	16841	15.6	1
0	16842	15.6	1
0	16843	15.6	0
0	16844	15.6	1
0	16845	15.6	2
0	16846	15.6	1
0	16847	15.6	1
0	16848	15.6	1
0	16849	15.6	0
0	16892	15.65	1
0	16893	15.65	2
0	16894	15.65	1
0	16895	15.65	1
0	16896	15.65	1
0	16897	15.65	0
0	16916	15.7	1
0	16917	15.7	2
0	16918	15.7	1
0	16919	15.7	1
0	16920	15.7	1
0	16921	15.7	0
0	16922	15.7	1
0	16923	15.7	2
0	16924	15.7	1
0	16925	15.7	1
0	16926	15.7	1
0	16927	15.7	0
0	16956	15.75	1
0	16957	15.75	2
0	16958	15.75	1
0	16959	15.75	1
0	16960	15.75	1
0	16961	15.75	0
0	16980	15.8	1
0	16981	15.8	2
0	16982	15.8	1
0	16983	15.8	1
0	16984	15.8	1
0	16985	15.8	0
0	16986	15.8	1
0	16987	15.8	2
0	16988	15.8	1
0	16989	15.8	1
0	16990	15.8	1
0	16991	15.8	0
0	17034	15.85	1
0	17035	15.85	2
0	17036	15.85	1
0	17037	15.85	1
0	17038	15.85	1
0	17039	15.85	0
0	17058	15.9	1
0	17059	15.9	2
0	17060	15.9	1
0	17061	15.9	1
0	17062	15.9	1
0	17063	15.9	0
0	17064	15.9	1
0	17065	15.9	2
0	17066	15.9	1
0	17067	15.9	1
0	17068	15.9	1
0	17069	15.9	0
0	17112	15.95	1
0	17113	15.95	2
0	17114	15.95	1
0	17115	15.95	1
0	17116	15.95	1
0	17117	15.95	0
0	17150	16	1
0	17151	16	2
0	17152	16	1
0	17153	16	1
0	17154	16	1
0	17155	16	0
0	17156	16	1
0	17157	16	2
0	17158	16	1
0	17159	16	1
0	17160	16	1
0	17161	16	0
0	17204	16.05	1
0	17205	16.05	2
0	17206	16.05	1
0	17207	16.05	1
0	17208	16.05	1
0	17209	16.05	0
0	17242	16.1	1
0	17243	16.1	2
0	17244	16.1	1
0	17245	16.1	1
0	17246	16.1	1
0	17247	16.1	0
0	17248	16.1	1
0	17249	16.1	2
0	17250	16.1	1
0	17251	16.1	1
0	17252	16.1	1
0	17253	16.1	0
0	17282	16.15	1
0	17283	16.15	2
0	17284	16.15	1
0	17285	16.15	1
0	17286	16.15	1
0	17287	16.15	0
0	17320	16.2	1
0	17321	16.2	2
0	17322	16.2	1
0	17323	16.2	1
0	17324	16.2	1
0	17325	16.2	0
0	17326	16.2	1
0	17327	16.2	2
0	17328	16.2	1
0	17329	16.2	1
0	17330	16.2	1
0	17331	16.2	0
0	17360	16.25	1
0	17361	16.25	2
0	17362	16.25	1
0	17363	16.25	1
0	17364	16.25	1
0	17365	16.25	0
0	17384	16.3	1
0	17385	16.3	2
0	17386	16.3	1
0	17387	16.3	1
0	17388	16.3	1
0	17389	16.3	0
0	17390	16.3	1
0	17391	16.3	2
0	17392	16.3	1
0	17393	16.3	1
0	17394	16.3	1
0	17395	16.3	0
0	17438	16.35	1
0	17439	16.35	2
0	17440	16.35	1
0	17441	16.35	1
0	17442	16.35	1
0	17443	16.35	0
0	17462	16.4	1
0	17463	16.4	2
0	17464	16.4	1
0	17465	16.4	1
0	17466	16.4	1
0	17467	16.4	0
0	17468	16.4	1
0	17469	16.4	2
0	17470	16.4	1
0	17471	16.4	1
0	17472	16.4	1
0	17473	16.4	0
0	17502	16.45	1
0	17503	16.45	2
0	17504	16.45	1
0	17505	16.45	1
0	17506	16.45	1
0	17507	16.45	0
0	17540	16.5	1
0	17541	16.5	2
0	17542	16.5	1
0	17543	16.5	1
0	17544	16.5	1
0	17545	16.5	0
0	17546	16.5	1
0	17547	16.5	2
0	17548	16.5	1
0	17549	16.5	1
0	17550	16.5	1
0	17551	16.5	0
0	17594	16.55	1
0	17595	16.55	2
0	17596	16.55	1
0	17597	16.55	1
0	17598	16.55	1
0	17599	16.55	0
0	17632	16.6	1
0	17633	16.6	2
0	17634	16.6	1
0	17635	16.6	1
0	17636	16.6	1
0	17637	16.6	0
0	17638	16.6	1
0	17639	16.6	2
0	17640	16.6	1
0	17641	16.6	1
0	17642	16.6	1
0	17643	16.6	0
0	17686	16.65	1
0	17687	16.65	2
0	17688	16.65	1
0	17689	16.65	1
0	17690	16.65	1
0	17691	16.65	0
0	17710	16.7	1
0	17711	16.7	2
0	17712	16.7	1
0	17713	16.7	1
0	17714	16.7	1
0	17715	16.7	0
0	17716	16.7	1
0	17717	16.7	2
0	17718	16.7	1
0	17719	16.7	1
0	17720	16.7	1
0	17721	16.7	0
0	17760	16.75	1
0	17761	16.75	2
0	17762	16.75	1
0	17763	16.75	1
0	17764	16.75	1
0	17765	16.75	0
0	17784	16.8	1
0	17785	16.8	2
0	17786	16.8	1
0	17787	16.8	1
0	17788	16.8	1
0	17789	16.8	0
0	17790	16.8	1
0	17791	16.8	2
0	17792	16.8	1
0	17793	16.8	1
0	17794	16.8	1
0	17795	16.8	0
0	17824	16.85	1
0	17825	16.85	2
0	17826	16.85	1
0	17827	16.85	1
0	17828	16.85	1
0	17829	16.85	0
0	17862	16.9	1
0	17863	16.9	2
0	17864	16.9	1
0	17865	16.9	1
0	17866	16.9	1
0	17867	16.9	0
0	17868	16.9	1
0	17869	16.9	2
0	17870	16.9	1
0	17871	16.9	1
0	17872	16.9	1
0	17873	16.9	0
0	17902	16.95	1
0	17903	16.95	2
0	17904	16.95	1
0	17905	16.95	1
0	17906	16.95	1
0	17907	16.95	0
0	17931	17	1
0	17932	17	2
0	17933	17	1
0	17934	17	1
0	17935	17	1
0	17936	17	0
0	17937	17	1
0	17938	17	2
0	17939	17	1
0	17940	17	1
0	17941	17	1
0	17942	17	0
0	17985	17.05	1
0	17986	17.05	2
0	17987	17.05	1
0	17988	17.05	1
0	17989	17.05	1
0	17990	17.05	0
0	18023	17.1	1
0	18024	17.1	2
0	18025	17.1	1
0	18026	17.1	1
0	18027	17.1	1
0	18028	17.1	0
0	18029	17.1	1
0	18030	17.1	2
0	18031	17.1	1
0	18032	17.1	1
0	18033	17.1	1
0	18034	17.1	0
0	18077	17.15	1
0	18078	17.15	2
0	18079	17.15	1
0	18080	17.15	1
0	18081	17.15	1
0	18082	17.15	0
0	18111	17.2	1
0	18112	17.2	2
0	18113	17.2	1
0	18114	17.2	1
0	18115	17.2	1
0	18116	17.2	0
0	18117	17.2	1
0	18118	17.2	2
0	18119	17.2	1
0	18120	17.2	1
0	18121	17.2	1
0	18122	17.2	0
0	18151	17.25	1
0	18152	17.25	2
0	18153	17.25	1
0	18154	17.25	1
0	18155	17.25	1
0	18156	17.25	0
0	18189	17.3	1
0	18190	17.3	2
0	18191	17.3	1
0	18192	17.3	1
0	18193	17.3	1
0	18194	17.3	0
0	18195	17.3	1
0	18196	17.3	2
0	18197	17.3	1
0	18198	17.3	1
0	18199	17.3	1
0	18200	17.3	0
0	18229	17.35	1
0	18230	17.35	2
0	18231	17.35	1
0	18232	17.35	1
0	18233	17.35	1
0	18234	17.35	0
0	18253	17.4	1
0	18254	17.4	2
0	18255	17.4	1
0	18256	17.4	1
0	18257	17.4	1
0	18258	17.4	0
0	18259	17.4	1
0	18260	17.4	2
0	18261	17.4	1
0	18262	17.4	1
0	18263	17.4	1
0	18264	17.4	0
0	18307	17.45	1
0	18308	17.45	2
0	18309	17.45	1
0	18310	17.45	1
0	18311	17.45	1
0	18312	17.45	0
0	18331	17.5	1
0	18332	17.5	2
0	18333	17.5	1
0	18334	17.5	1
0	18335	17.5	1
0	18336	17.5	0
0	18337	17.5	1
0	18338	17.5	2
0	18339	17.5	1
0	18340	17.5	1
0	18341	17.5	1
0	18342	17.5	0
0	18371	17.55	1
0	18372	17.55	2
0	18373	17.55	1
0	18374	17.55	1
0	18375	17.55	1
0	18376	17.55	0
0	18409	17.6	1
0	18410	17.6	2
0	18411	17.6	1
0	18412	17.6	1
0	18413	17.6	1
0	18414	17.6	0
0	18415	17.6	1
0	18416	17.6	2
0	18417	17.6	1
0	18418	17.6	1
0	18419	17.6	1
0	18420	17.6	0
0	18452	17.65	1
0	18453	17.65	2
0	18454	17.65	1
0	18455	17.65	1
0	18456	17.65	1
0	18457	17.65	0
0	18490	17.7	1
0	18491	17.7	2
0	18492	17.7	1
0	18493	17.7	1
0	18494	17.7	1
0	18495	17.7	0
0	18496	17.7	1
0	18497	17.7	2
0	18498	17.7	1
0	18499	17.7	1
0	18500	17.7	1
0	18501	17.7	0
0	18544	17.75	1
0	18545	17.75	2
0	18546	17.75	1
0	18547	17.75	1
0	18548	17.75	1
0	18549	17.75	0
0	18568	17.8	1
0	18569	17.8	2
0	18570	17.8	1
0	18571	17.8	1
0	18572	17.8	1
0	18573	17.8	0
0	18574	17.8	1
0	18575	17.8	2
0	18576	17.8	1
0	18577	17.8	1
0	18578	17.8	1
0	18579	17.8	0
0	18611	17.85	1
0	18612	17.85	2
0	18613	17.85	1
0	18614	17.85	1
0	18615	17.85	1
0	18616	17.85	0
0	18635	17.9	1
0	18636	17.9	2
0	18637	17.9	1
0	18638	17.9	1
0	18639	17.9	1
0	18640	17.9	0
0	18641	17.9	1
0	18642	17.9	2
0	18643	17.9	1
0	18644	17.9	1
0	18645	17.9	1
0	18646	17.9	0
0	18675	17.95	1
0	18676	17.95	2
0	18677	17.95	1
0	18678	17.95	1
0	18679	17.95	1
0	18680	17.95	0
0	18699	18	1
0	18700	18	2
0	18701	18	1
0	18702	18	1
0	18703	18	1
0	18704	18	0
0	18705	18	1
0	18706	18	2
0	18707	18	1
0	18708	18	1
0	18709	18	1
0	18710	18	0
0	18739	18.05	1
0	18740	18.05	2
0	18741	18.05	1
0	18742	18.05	1
0	18743	18.05	1
0	18744	18.05	0
0	18763	18.1	1
0	18764	18.1	2
0	18765	18.1	1
0	18766	18.1	1
0	18767	18.1	1
0	18768	18.1	0
0	18769	18.1	1
0	18770	18.1	2
0	18771	18.1	1
0	18772	18.1	1
0	18773	18.1	1
0	18774	18.1	0
0	18817	18.15	1
0	18818	18.15	2
0	18819	18.15	1
0	18820	18.15	1
0	18821	18.15	1
0	18822	18.15	0
0	18841	18.2	1
0	18842	18.2	2
0	18843	18.2	1
0	18844	18.2	1
0	18845	18.2	1
0	18846	18.2	0
0	18847	18.2	1
0	18848	18.2	2
0	18849	18.2	1
0	18850	18.2	1
0	18851	18.2	1
0	18852	18.2	0
0	18881	18.25	1
0	18882	18.25	2
0	18883	18.25	1
0	18884	18.25	1
0	18885	18.25	1
0	18886	18.25	0
0	18919	18.3	1
0	18920	18.3	2
0	18921	18.3	1
0	18922	18.3	1
0	18923	18.3	1
0	18924	18.3	0
0	18925	18.3	1
0	18926	18.3	2
0	18927	18.3	1
0	18928	18.3	1
0	18929	18.3	1
0	18930	18.3	0
0	18959	18.35	1
0	18960	18.35	2
0	18961	18.35	1
0	18962	18.35	1
0	18963	18.35	1
0	18964	18.35	0
0	18983	18.4	1
0	18984	18.4	2
0	18985	18.4	1
0	18986	18.4	1
0	18987	18.4	1
0	18988	18.4	0
0	18989	18.4	1
0	18990	18.4	2
0	18991	18.4	1
0	18992	18.4	1
0	18993	18.4	1
0	18994	18.4	0
0	19023	18.45	1
0	19024	18.45	2
0	19025	18.45	1
0	19026	18.45	1
0	19027	18.45	1
0	19028	18.45	0
0	19047	18.5	1
0	19048	18.5	2
0	19049	18.5	1
0	19050	18.5	1
0	19051	18.5	1
0	19052	18.5	0
0	19053	18.5	1
0	19054	18.5	2
0	19055	18.5	1
0	19056	18.5	1
0	19057	18.5	1
0	19058	18.5	0
0	19087	18.55	1
0	19088	18.55	2
0	19089	18.55	1
0	19090	18.55	1
0	19091	18.55	1
0	19092	18.55	0
0	19111	18.6	1
0	19112	18.6	2
0	19113	18.6	1
0	19114	18.6	1
0	19115	18.6	1
0	19116	18.6	0
0	19117	18.6	1
0	19118	18.6	2
0	19119	18.6	1
0	19120	18.6	1
0	19121	18.6	1
0	19122	18.6	0
0	19151	18.65	1
0	19152	18.65	2
0	19153	18.65	1
0	19154	18.65	1
0	19155	18.65	1
0	19156	18.65	0
0	19189	18.7	1
0	19190	18.7	2
0	19191	18.7	1
0	19192	18.7	1
0	19193	18.7	1
0	19194	18.7	0
0	19195	18.7	1
0	19196	18.7	2
0	19197	18.7	1
0	19198	18.7	1
0	19199	18.7	1
0	19200	18.7	0
0	19229	18.75	1
0	19230	18.75	2
0	19231	18.75	1
0	19232	18.75	1
0	19233	18.75	1
0	19234	18.75	0
0	19253	18.8	1
0	19254	18.8	2
0	19255	18.8	1
0	19256	18.8	1
0	19257	18.8	1
0	19258	18.8	0
0	19259	18.8	1
0	19260	18.8	2
0	19261	18.8	1
0	19262	18.8	1
0	19263	18.8	1
0	19264	18.8	0
0	19303	18.85	1
0	19304	18.85	2
0	19305	18.85	1
0	19306	18.85	1
0	19307	18.85	1
0	19308	18.85	0
0	19327	18.9	1
0	19328	18.9	2
0	19329	18.9	1
0	19330	18.9	1
0	19331	18.9	1
0	19332	18.9	0
0	19333	18.9	1
0	19334	18.9	2
0	19335	18.9	1
0	19336	18.9	1
0	19337	18.9	1
0	19338	18.9	0
0	19367	18.95	1
0	19368	18.95	2
0	19369	18.95	1
0	19370	18.95	1
0	19371	18.95	1
0	19372	18.95	0
0	19391	19	1
0	19392	19	2
0	19393	19	1
0	19394	19	1
0	19395	19	1
0	19396	19	0
0	19397	19	1
0	19398	19	2
0	19399	19	1
0	19400	19	1
0	19401	19	1
0	19402	19	0
0	19441	19.05	1
0	19442	19.05	2
0	19443	19.05	1
0	19444	19.05	1
0	19445	19.05	1
0	19446	19.05	0
0	19465	19.1	1
0	19466	19.1	2
0	19467	19.1	1
0	19468	19.1	1
0	19469	19.1	1
0	19470	19.1	0
0	19471	19.1	1
0	19472	19.1	2
0	19473	19.1	1
0	19474	19.1	1
0	19475	19.1	1
0	19476	19.1	0
0	19505	19.15	1
0	19506	19.15	2
0	19507	19.15	1
0	19508	19.15	1
0	19509	19.15	1
0	19510	19.15	0
0	19543	19.2	1
0	19544	19.2	2
0	19545	19.2	1
0	19546	19.2	1
0	19547	19.2	1
0	19548	19.2	0
0	19549	19.2	1
0	19550	19.2	2
0	19551	19.2	1
0	19552	19.2	1
0	19553	19.2	1
0	19554	19.2	0
0	19597	19.25	1
0	19598	19.25	2
0	19599	19.25	1
0	19600	19.25	1
0	19601	19.25	1
0	19602	19.25	0
0	19635	19.3	1
0	19636	19.3	2
0	19637	19.3	1
0	19638	19.3	1
0	19639	19.3	1
0	19640	19.3	0
0	19641	19.3	1
0	19642	19.3	2
0	19643	19.3	1
0	19644	19.3	1
0	19645	19.3	1
0	19646	19.3	0
0	19675	19.35	1
0	19676	19.35	2
0	19677	19.35	1
0	19678	19.35	1
0	19679	19.35	1
0	19680	19.35	0
0	19713	19.4	1
0	19714	19.4	2
0	19715	19.4	1
0	19716	19.4	1
0	19717	19.4	1
0	19718	19.4	0
0	19719	19.4	1
0	19720	19.4	2
0	19721	19.4	1
0	19722	19.4	1
0	19723	19.4	1
0	19724	19.4	0
0	19763	19.45	1
0	19764	19.45	2
0	19765	19.45	1
0	19766	19.45	1
0	19767	19.45	1
0	19768	19.45	0
0	19787	19.5	1
0	19788	19.5	2
0	19789	19.5	1
0	19790	19.5	1
0	19791	19.5	1
0	19792	19.5	0
0	19793	19.5	1
0	19794	19.5	2
0	19795	19.5	1
0	19796	19.5	1
0	19797	19.5	1
0	19798	19.5	0
0	19827	19.55	1
0	19828	19.55	2
0	19829	19.55	1
0	19830	19.55	1
0	19831	19.55	1
0	19832	19.55	0
0	19865	19.6	1
0	19866	19.6	2
0	19867	19.6	1
0	19868	19.6	1
0	19869	19.6	1
0	19870	19.6	0
0	19871	19.6	1
0	19872	19.6	2
0	19873	19.6	1
0	19874	19.6	1
0	19875	19.6	1
0	19876	19.6	0
0	19905	19.65	1
0	19906	19.65	2
0	19907	19.65	1
0	19908	19.65	1
0	19909	19.65	1
0	19910	19.65	0
0	19929	19.7	1
0	19930	19.7	2
0	19931	19.7	1
0	19932	19.7	1
0	19933	19.7	1
0	19934	19.7	0
0	19935	19.7	1
0	19936	19.7	2
0	19937	19.7	1
0	19938	19.7	1
0	19939	19.7	1
0	19940	19.7	0
0	19983	19.75	1
0	19984	19.75	2
0	19985	19.75	1
0	19986	19.75	1
0	19987	19.75	1
0	19988	19.75	0
0	20021	19.8	1
0	20022	19.8	2
0	20023	19.8	1
0	20024	19.8	1
0	20025	19.8	1
0	20026	19.8	0
0	20027	19.8	1
0	20028	19.8	2
0	20029	19.8	1
0	20030	19.8	1
0	20031	19.8	1
0	20032	19.8	0
0	20064	19.85	1
0	20065	19.85	2
0	20066	19.85	1
0	20067	19.85	1
0	20068	19.85	1
0	20069	19.85	0
0	20088	19.9	1
0	20089	19.9	2
0	20090	19.9	1
0	20091	19.9	1
0	20092	19.9	1
0	20093	19.9	0
0	20094	19.9	1
0	20095	19.9	2
0	20096	19.9	1
0	20097	19.9	1
0	20098	19.9	1
0	20099	19.9	0
0	20142	19.95	1
0	20143	19.95	2
0	20144	19.95	1
0	20145	19.95	1
0	20146	19.95	1
0	20147	19.95	0
0	20167	20	1
0	20168	20	2
0	20169	20	1
0	20170	20	1
0	20171	20	1
0	20172	20	0
0	20173	20	1
0	20174	20	2
0	20175	20	1
0	20176	20	1
0	20177	20	1
0	20178	20	0
0	20207	20.05	1
0	20208	20.05	2
0	20209	20.05	1
0	20210	20.05	1
0	20211	20.05	1
0	20212	20.05	0
0	20231	20.1	1
0	20232	20.1	2
0	20233	20.1	1
0	20234	20.1	1
0	20235	20.1	1
0	20236	20.1	0
0	20237	20.1	1
0	20238	20.1	2
0	20239	20.1	1
0	20240	20.1	1
0	20241	20.1	1
0	20242	20.1	0
0	20285	20.15	1
0	20286	20.15	2
0	20287	20.15	1
0	20288	20.15	1
0	20289	20.15	1
0	20290	20.15	0
0	20309	20.2	1
0	20310	20.2	2
0	20311	20.2	1
0	20312	20.2	1
0	20313	20.2	1
0	20314	20.2	0
0	20315	20.2	1
0	20316	20.2	2
0	20317	20.2	1
0	20318	20.2	1
0	20319	20.2	1
0	20320	20.2	0
0	20349	20.25	1
0	20350	20.25	2
0	20351	20.25	1
0	20352	20.25	1
0	20353	20.25	1
0	20354	20.25	0
0	20387	20.3	1
0	20388	20.3	2
0	20389	20.3	1
0	20390	20.3	1
0	20391	20.3	1
0	20392	20.3	0
0	20393	20.3	1
0	20394	20.3	2
0	20395	20.3	1
0	20396	20.3	1
0	20397	20.3	1
0	20398	20.3	0
0	20441	20.35	1
0	20442	20.35	2
0	20443	20.35	1
0	20444	20.35	1
0	20445	20.35	1
0	20446	20.35	0
0	20465	20.4	1
0	20466	20.4	2
0	20467	20.4	1
0	20468	20.4	1
0	20469	20.4	1
0	20470	20.4	0
0	20471	20.4	1
0	20472	20.4	2
0	20473	20.4	1
0	20474	20.4	1
0	20475	20.4	1
0	20476	20.4	0
0	20505	20.45	1
0	20506	20.45	2
0	20507	20.45	1
0	20508	20.45	1
0	20509	20.45	1
0	20510	20.45	0
0	20543	20.5	1
0	20544	20.5	2
0	20545	20.5	1
0	20546	20.5	1
0	20547	20.5	1
0	20548	20.5	0
0	20549	20.5	1
0	20550	20.5	2
0	20551	20.5	1
0	20552	20.5	1
0	20553	20.5	1
0	20554	20.5	0
0	20583	20.55	1
0	20584	20.55	2
0	20585	20.55	1
0	20586	20.55	1
0	20587	20.55	1
0	20588	20.55	0
0	20607	20.6	1
0	20608	20.6	2
0	20609	20.6	1
0	20610	20.6	1
0	20611	20.6	1
0	20612	20.6	0
0	20613	20.6	1
0	20614	20.6	2
0	20615	20.6	1
0	20616	20.6	1
0	20617	20.6	1
0	20618	20.6	0
0	20647	20.65	1
0	20648	20.65	2
0	20649	20.65	1
0	20650	20.65	1
0	20651	20.65	1
0	20652	20.65	0
0	20685	20.7	1
0	20686	20.7	2
0	20687	20.7	1
0	20688	20.7	1
0	20689	20.7	1
0	20690	20.7	0
0	20691	20.7	1
0	20692	20.7	2
0	20693	20.7	1
0	20694	20.7	1
0	20695	20.7	1
0	20696	20.7	0
0	20725	20.75	1
0	20726	20.75	2
0	20727	20.75	1
0	20728	20.75	1
0	20729	20.75	1
0	20730	20.75	0
0	20749	20.8	1
0	20750	20.8	2
0	20751	20.8	1
0	20752	20.8	1
0	20753	20.8	1
0	20754	20.8	0
0	20755	20.8	1
0	20756	20.8	2
0	20757	20.8	1
0	20758	20.8	1
0	20759	20.8	1
0	20760	20.8	0
0	20803	20.85	1
0	20804	20.85	2
0	20805	20.85	1
0	20806	20.85	1
0	20807	20.85	1
0	20808	20.85	0
0	20841	20.9	1
0	20842	20.9	2
0	20843	20.9	1
0	20844	20.9	1
0	20845	20.9	1
0	20846	20.9	0
0	20847	20.9	1
0	20848	20.9	2
0	20849	20.9	1
0	20850	20.9	1
0	20851	20.9	1
0	20852	20.9	0
0	20881	20.95	1
0	20882	20.95	2
0	20883	20.95	1
0	20884	20.95	1
0	20885	20.95	1
0	20886	20.95	0
0	20905	21	1
0	20906	21	2
0	20907	21	1
0	20908	21	1
0	20909	21	1
0	20910	21	0
0	20911	21	1
0	20912	21	2
0	20913	21	1
0	20914	21	1
0	20915	21	1
0	20916	21	0
0	20973	21.05	1
0	20974	21.05	2
0	20975	21.05	1
0	20976	21.05	1
0	20977	21.05	1
0	20978	21.05	0
0	20997	21.1	1
0	20998	21.1	2
0	20999	21.1	1
0	21000	21.1	1
0	21001	21.1	1
0	21002	21.1	0
0	21003	21.1	1
0	21004	21.1	2
0	21005	21.1	1
0	21006	21.1	1
0	21007	21.1	1
0	21008	21.1	0
0	21037	21.15	1
0	21038	21.15	2
0	21039	21.15	1
0	21040	21.15	1
0	21041	21.15	1
0	21042	21.15	0
0	21075	21.2	1
0	21076	21.2	2
0	21077	21.2	1
0	21078	21.2	1
0	21079	21.2	1
0	21080	21.2	0
0	21081	21.2	1
0	21082	21.2	2
0	21083	21.2	1
0	21084	21.2	1
0	21085	21.2	1
0	21086	21.2	0
0	21125	21.25	1
0	21126	21.25	2
0	21127	21.25	1
0	21128	21.25	1
0	21129	21.25	1
0	21130	21.25	0
0	21149	21.3	1
0	21150	21.3	2
0	21151	21.3	1
0	21152	21.3	1
0	21153	21.3	1
0	21154	21.3	0
0	21155	21.3	1
0	21156	21.3	2
0	21157	21.3	1
0	21158	21.3	1
0	21159	21.3	1
0	21160	21.3	0
0	21189	21.35	1
0	21190	21.35	2
0	21191	21.35	1
0	21192	21.35	1
0	21193	21.35	1
0	21194	21.35	0
0	21227	21.4	1
0	21228	21.4	2
0	21229	21.4	1
0	21230	21.4	1
0	21231	21.4	1
0	21232	21.4	0
0	21233	21.4	1
0	21234	21.4	2
0	21235	21.4	1
0	21236	21.4	1
0	21237	21.4	1
0	21238	21.4	0
0	21281	21.45	1
0	21282	21.45	2
0	21283	21.45	1
0	21284	21.45	1
0	21285	21.45	1
0	21286	21.45	0
0	21305	21.5	1
0	21306	21.5	2
0	21307	21.5	1
0	21308	21.5	1
0	21309	21.5	1
0	21310	21.5	0
0	21311	21.5	1
0	21312	21.5	2
0	21313	21.5	1
0	21314	21.5	1
0	21315	21.5	1
0	21316	21.5	0
0	21345	21.55	1
0	21346	21.55	2
0	21347	21.55	1
0	21348	21.55	1
0	21349	21.55	1
0	21350	21.55	0
0	21397	21.6	1
0	21398	21.6	2
0	21399	21.6	1
0	21400	21.6	1
0	21401	21.6	1
0	21402	21.6	0
0	21403	21.6	1
0	21404	21.6	2
0	21405	21.6	1
0	21406	21.6	1
0	21407	21.6	1
0	21408	21.6	0
0	21437	21.65	1
0	21438	21.65	2
0	21439	21.65	1
0	21440	21.65	1
0	21441	21.65	1
0	21442	21.65	0
0	21461	21.7	1
0	21462	21.7	2
0	21463	21.7	1
0	21464	21.7	1
0	21465	21.7	1
0	21466	21.7	0
0	21467	21.7	1
0	21468	21.7	2
0	21469	21.7	1
0	21470	21.7	1
0	21471	21.7	1
0	21472	21.7	0
0	21515	21.75	1
0	21516	21.75	2
0	21517	21.75	1
0	21518	21.75	1
0	21519	21.75	1
0	21520	21.75	0
0	21553	21.8	1
0	21554	21.8	2
0	21555	21.8	1
0	21556	21.8	1
0	21557	21.8	1
0	21558	21.8	0
0	21559	21.8	1
0	21560	21.8	2
0	21561	21.8	1
0	21562	21.8	1
0	21563	21.8	1
0	21564	21.8	0
0	21593	21.85	1
0	21594	21.85	2
0	21595	21.85	1
0	21596	21.85	1
0	21597	21.85	1
0	21598	21.85	0
0	21617	21.9	1
0	21618	21.9	2
0	21619	21.9	1
0	21620	21.9	1
0	21621	21.9	1
0	21622	21.9	0
0	21623	21.9	1
0	21624	21.9	2
0	21625	21.9	1
0	21626	21.9	1
0	21627	21.9	1
0	21628	21.9	0
0	21671	21.95	1
0	21672	21.95	2
0	21673	21.95	1
0	21674	21.95	1
0	21675	21.95	1
0	21676	21.95	0
0	21714	22	1
0	21715	22	2
0	21716	22	1
0	21717	22	1
0	21718	22	1
0	21719	22	0
0	21720	22	1
0	21721	22	2
0	21722	22	1
0	21723	22	1
0	21724	22	1
0	21725	22	0
0	21754	22.05	1
0	21755	22.05	2
0	21756	22.05	1
0	21757	22.05	1
0	21758	22.05	1
0	21759	22.05	0
0	21778	22.1	1
0	21779	22.1	2
0	21780	22.1	1
0	21781	22.1	1
0	21782	22.1	1
0	21783	22.1	0
0	21784	22.1	1
0	21785	22.1	2
0	21786	22.1	1
0	21787	22.1	1
0	21788	22.1	1
0	21789	22.1	0
0	21846	22.15	1
0	21847	22.15	2
0	21848	22.15	1
0	21849	22.15	1
0	21850	22.15	1
0	21851	22.15	0
0	21870	22.2	1
0	21871	22.2	2
0	21872	22.2	1
0	21873	22.2	1
0	21874	22.2	1
0	21875	22.2	0
0	21876	22.2	1
0	21877	22.2	2
0	21878	22.2	1
0	21879	22.2	1
0	21880	22.2	1
0	21881	22.2	0
0	21910	22.25	1
0	21911	22.25	2
0	21912	22.25	1
0	21913	22.25	1
0	21914	22.25	1
0	21915	22.25	0
0	21948	22.3	1
0	21949	22.3	2
0	21950	22.3	1
0	21951	22.3	1
0	21952	22.3	1
0	21953	22.3	0
0	21954	22.3	1
0	21955	22.3	2
0	21956	22.3	1
0	21957	22.3	1
0	21958	22.3	1
0	21959	22.3	0
0	22002	22.35	1
0	22003	22.35	2
0	22004	22.35	1
0	22005	22.35	1
0	22006	22.35	1
0	22007	22.35	0
0	22026	22.4	1
0	22027	22.4	2
0	22028	22.4	1
0	22029	22.4	1
0	22030	22.4	1
0	22031	22.4	0
0	22032	22.4	1
0	22033	22.4	2
0	22034	22.4	1
0	22035	22.4	1
0	22036	22.4	1
0	22037	22.4	0
0	22066	22.45	1
0	22067	22.45	2
0	22068	22.45	1
0	22069	22.45	1
0	22070	22.45	1
0	22071	22.45	0
0	22104	22.5	1
0	22105	22.5	2
0	22106	22.5	1
0	22107	22.5	1
0	22108	22.5	1
0	22109	22.5	0
0	22110	22.5	1
0	22111	22.5	2
0	22112	22.5	1
0	22113	22.5	1
0	22114	22.5	1
0	22115	22.5	0
0	22158	22.55	1
0	22159	22.55	2
0	22160	22.55	1
0	22161	22.55	1
0	22162	22.55	1
0	22163	22.55	0
0	22182	22.6	1
0	22183	22.6	2
0	22184	22.6	1
0	22185	22.6	1
0	22186	22.6	1
0	22187	22.6	0
0	22188	22.6	1
0	22189	22.6	2
0	22190	22.6	1
0	22191	22.6	1
0	22192	22.6	1
0	22193	22.6	0
0	22222	22.65	1
0	22223	22.65	2
0	22224	22.65	1
0	22225	22.65	1
0	22226	22.65	1
0	22227	22.65	0
0	22274	22.7	1
0	22275	22.7	2
0	22276	22.7	1
0	22277	22.7	1
0	22278	22.7	1
0	22279	22.7	0
0	22280	22.7	1
0	22281	22.7	2
0	22282	22.7	1
0	22283	22.7	1
0	22284	22.7	1
0	22285	22.7	0
0	22314	22.75	1
0	22315	22.75	2
0	22316	22.75	1
0	22317	22.75	1
0	22318	22.75	1
0	22319	22.75	0
0	22338	22.8	1
0	22339	22.8	2
0	22340	22.8	1
0	22341	22.8	1
0	22342	22.8	1
0	22343	22.8	0
0	22344	22.8	1
0	22345	22.8	2
0	22346	22.8	1
0	22347	22.8	1
0	22348	22.8	1
0	22349	22.8	0
0	22392	22.85	1
0	22393	22.85	2
0	22394	22.85	1
0	22395	22.85	1
0	22396	22.85	1
0	22397	22.85	0
0	22430	22.9	1
0	22431	22.9	2
0	22432	22.9	1
0	22433	22.9	1
0	22434	22.9	1
0	22435	22.9	0
0	22436	22.9	1
0	22437	22.9	2
0	22438	22.9	1
0	22439	22.9	1
0	22440	22.9	1
0	22441	22.9	0
0	22470	22.95	1
0	22471	22.95	2
0	22472	22.95	1
0	22473	22.95	1
0	22474	22.95	1
0	22475	22.95	0
0	22494	23	1
0	22495	23	2
0	22496	23	1
0	22497	23	1
0	22498	23	1
0	22499	23	0
0	22500	23	1
0	22501	23	2
0	22502	23	1
0	22503	23	1
0	22504	23	1
0	22505	23	0
0	22548	23.05	1
0	22549	23.05	2
0	22550	23.05	1
0	22551	23.05	1
0	22552	23.05	1
0	22553	23.05	0
0	22586	23.1	1
0	22587	23.1	2
0	22588	23.1	1
0	22589	23.1	1
0	22590	23.1	1
0	22591	23.1	0
0	22592	23.1	1
0	22593	23.1	2
0	22594	23.1	1
0	22595	23.1	1
0	22596	23.1	1
0	22597	23.1	0
0	22626	23.15	1
0	22627	23.15	2
0	22628	23.15	1
0	22629	23.15	1
0	22630	23.15	1
0	22631	23.15	0
0	22650	23.2	1
0	22651	23.2	2
0	22652	23.2	1
0	22653	23.2	1
0	22654	23.2	1
0	22655	23.2	0
0	22656	23.2	1
0	22657	23.2	2
0	22658	23.2	1
0	22659	23.2	1
0	22660	23.2	1
0	22661	23.2	0
0	22718	23.25	1
0	22719	23.25	2
0	22720	23.25	1
0	22721	23.25	1
0	22722	23.25	1
0	22723	23.25	0
0	22742	23.3	1
0	22743	23.3	2
0	22744	23.3	1
0	22745	23.3	1
0	22746	23.3	1
0	22747	23.3	0
0	22748	23.3	1
0	22749	23.3	2
0	22750	23.3	1
0	22751	23.3	1
0	22752	23.3	1
0	22753	23.3	0
0	22782	23.35	1
0	22783	23.35	2
0	22784	23.35	1
0	22785	23.35	1
0	22786	23.35	1
0	22787	23.35	0
0	22820	23.4	1
0	22821	23.4	2
0	22822	23.4	1
0	22823	23.4	1
0	22824	23.4	1
0	22825	23.4	0
0	22826	23.4	1
0	22827	23.4	2
0	22828	23.4	1
0	22829	23.4	1
0	22830	23.4	1
0	22831	23.4	0
0	22874	23.45	1
0	22875	23.45	2
0	22876	23.45	1
0	22877	23.45	1
0	22878	23.45	1
0	22879	23.45	0
0	22898	23.5	1
0	22899	23.5	2
0	22900	23.5	1
0	22901	23.5	1
0	22902	23.5	1
0	22903	23.5	0
0	22904	23.5	1
0	22905	23.5	2
0	22906	23.5	1
0	22907	23.5	1
0	22908	23.5	1
0	22909	23.5	0
0	22938	23.55	1
0	22939	23.55	2
0	22940	23.55	1
0	22941	23.55	1
0	22942	23.55	1
0	22943	23.55	0
0	22976	23.6	1
0	22977	23.6	2
0	22978	23.6	1
0	22979	23.6	1
0	22980	23.6	1
0	22981	23.6	0
0	22982	23.6	1
0	22983	23.6	2
0	22984	23.6	1
0	22985	23.6	1
0	22986	23.6	1
0	22987	23.6	0
0	23030	23.65	1
0	23031	23.65	2
0	23032	23.65	1
0	23033	23.65	1
0	23034	23.65	1
0	23035	23.65	0
0	23054	23.7	1
0	23055	23.7	2
0	23056	23.7	1
0	23057	23.7	1
0	23058	23.7	1
0	23059	23.7	0
0	23060	23.7	1
0	23061	23.7	2
0	23062	23.7	1
0	23063	23.7	1
0	23064	23.7	1
0	23065	23.7	0
0	23094	23.75	1
0	23095	23.75	2
0	23096	23.75	1
0	23097	23.75	1
0	23098	23.75	1
0	23099	23.75	0
0	23146	23.8	1
0	23147	23.8	2
0	23148	23.8	1
0	23149	23.8	1
0	23150	23.8	1
0	23151	23.8	0
0	23152	23.8	1
0	23153	23.8	2
0	23154	23.8	1
0	23155	23.8	1
0	23156	23.8	1
0	23157	23.8	0
0	23186	23.85	1
0	23187	23.85	2
0	23188	23.85	1
0	23189	23.85	1
0	23190	23.85	1
0	23191	23.85	0
0	23210	23.9	1
0	23211	23.9	2
0	23212	23.9	1
0	23213	23.9	1
0	23214	23.9	1
0	23215	23.9	0
0	23216	23.9	1
0	23217	23.9	2
0	23218	23.9	1
0	23219	23.9	1
0	23220	23.9	1
0	23221	23.9	0
0	23264	23.95	1
0	23265	23.95	2
0	23266	23.95	1
0	23267	23.95	1
0	23268	23.95	1
0	23269	23.95	0
0	23302	24	1
0	23303	24	2
0	23304	24	1
0	23305	24	1
0	23306	24	1
0	23307	24	0
0	23308	24	1
0	23309	24	2
0	23310	24	1
0	23311	24	1
0	23312	24	1
0	23313	24	0
0	23342	24.05	1
0	23343	24.05	2
0	23344	24.05	1
0	23345	24.05	1
0	23346	24.05	1
0	23347	24.05	0
0	23366	24.1	1
0	23367	24.1	2
0	23368	24.1	1
0	23369	24.1	1
0	23370	24.1	1
0	23371	24.1	0
0	23372	24.1	1
0	23373	24.1	2
0	23374	24.1	1
0	23375	24.1	1
0	23376	24.1	1
0	23377	24.1	0
0	23420	24.15	1
0	23421	24.15	2
0	23422	24.15	1
0	23423	24.15	1
0	23424	24.15	1
0	23425	24.15	0
0	23458	24.2	1
0	23459	24.2	2
0	23460	24.2	1
0	23461	24.2	1
0	23462	24.2	1
0	23463	24.2	0
0	23464	24.2	1
0	23465	24.2	2
0	23466	24.2	1
0	23467	24.2	1
0	23468	24.2	1
0	23469	24.2	0
0	23498	24.25	1
0	23499	24.25	2
0	23500	24.25	1
0	23501	24.25	1
0	23502	24.25	1
0	23503	24.25	0
0	23522	24.3	1
0	23523	24.3	2
0	23524	24.3	1
0	23525	24.3	1
0	23526	24.3	1
0	23527	24.3	0
0	23528	24.3	1
0	23529	24.3	2
0	23530	24.3	1
0	23531	24.3	1
0	23532	24.3	1
0	23533	24.3	0
0	23590	24.35	1
0	23591	24.35	2
0	23592	24.35	1
0	23593	24.35	1
0	23594	24.35	1
0	23595	24.35	0
0	23614	24.4	1
0	23615	24.4	2
0	23616	24.4	1
0	23617	24.4	1
0	23618	24.4	1
0	23619	24.4	0
0	23620	24.4	1
0	23621	24.4	2
0	23622	24.4	1
0	23623	24.4	1
0	23624	24.4	1
0	23625	24.4	0
0	23654	24.45	1
0	23655	24.45	2
0	23656	24.45	1
0	23657	24.45	1
0	23658	24.45	1
0	23659	24.45	0
0	23692	24.5	1
0	23693	24.5	2
0	23694	24.5	1
0	23695	24.5	1
0	23696	24.5	1
0	23697	24.5	0
0	23698	24.5	1
0	23699	24.5	2
0	23700	24.5	1
0	23701	24.5	1
0	23702	24.5	1
0	23703	24.5	0
0	23746	24.55	1
0	23747	24.55	2
0	23748	24.55	1
0	23749	24.55	1
0	23750	24.55	1
0	23751	24.55	0
0	23770	24.6	1
0	23771	24.6	2
0	23772	24.6	1
0	23773	24.6	1
0	23774	24.6	1
0	23775	24.6	0
0	23776	24.6	1
0	23777	24.6	2
0	23778	24.6	1
0	23779	24.6	1
0	23780	24.6	1
0	23781	24.6	0
0	23810	24.65	1
0	23811	24.65	2
0	23812	24.65	1
0	23813	24.65	1
0	23814	24.65	1
0	23815	24.65	0
0	23837	24.7	1
0	23838	24.7	2
0	23839	24.7	1
0	23840	24.7	1
0	23841	24.7	1
0	23842	24.7	0
0	23843	24.7	1
0	23844	24.7	2
0	23845	24.7	1
0	23846	24.7	1
0	23847	24.7	1
0	23848	24.7	0
0	23891	24.75	1
0	23892	24.75	2
0	23893	24.75	1
0	23894	24.75	1
0	23895	24.75	1
0	23896	24.75	0
0	23915	24.8	1
0	23916	24.8	2
0	23917	24.8	1
0	23918	24.8	1
0	23919	24.8	1
0	23920	24.8	0
0	23921	24.8	1
0	23922	24.8	2
0	23923	24.8	1
0	23924	24.8	1
0	23925	24.8	1
0	23926	24.8	0
0	23955	24.85	1
0	23956	24.85	2
0	23957	24.85	1
0	23958	24.85	1
0	23959	24.85	1
0	23960	24.85	0
0	23996	24.9	1
0	23997	24.9	2
0	23998	24.9	1
0	23999	24.9	1
0	24000	24.9	1
0	24001	24.9	0
0	24002	24.9	1
0	24003	24.9	2
0	24004	24.9	1
0	24005	24.9	1
0	24006	24.9	1
0	24007	24.9	0
0	24036	24.95	1
0	24037	24.95	2
0	24038	24.95	1
0	24039	24.95	1
0	24040	24.95	1
0	24041	24.95	0
0	24061	25	1
0	24062	25	2
0	24063	25	1
0	24064	25	1
0	24065	25	1
0	24066	25	0
0	24067	25	1
0	24068	25	2
0	24069	25	1
0	24070	25	1
0	24071	25	1
0	24072	25	0
0	24101	25.05	1
0	24102	25.05	2
0	24103	25.05	1
0	24104	25.05	1
0	24105	25.05	1
0	24106	25.05	0
0	24125	25.1	1
0	24126	25.1	2
0	24127	25.1	1
0	24128	25.1	1
0	24129	25.1	1
0	24130	25.1	0
0	24131	25.1	1
0	24132	25.1	2
0	24133	25.1	1
0	24134	25.1	1
0	24135	25.1	1
0	24136	25.1	0
0	24165	25.15	1
0	24166	25.15	2
0	24167	25.15	1
0	24168	25.15	1
0	24169	25.15	1
0	24170	25.15	0
0	24189	25.2	1
0	24190	25.2	2
0	24191	25.2	1
0	24192	25.2	1
0	24193	25.2	1
0	24194	25.2	0
0	24195	25.2	1
0	24196	25.2	2
0	24197	25.2	1
0	24198	25.2	1
0	24199	25.2	1
0	24200	25.2	0
0	24229	25.25	1
0	24230	25.25	2
0	24231	25.25	1
0	24232	25.25	1
0	24233	25.25	1
0	24234	25.25	0
0	24267	25.3	1
0	24268	25.3	2
0	24269	25.3	1
0	24270	25.3	1
0	24271	25.3	1
0	24272	25.3	0
0	24273	25.3	1
0	24274	25.3	2
0	24275	25.3	1
0	24276	25.3	1
0	24277	25.3	1
0	24278	25.3	0
0	24307	25.35	1
0	24308	25.35	2
0	24309	25.35	1
0	24310	25.35	1
0	24311	25.35	1
0	24312	25.35	0
0	24331	25.4	1
0	24332	25.4	2
0	24333	25.4	1
0	24334	25.4	1
0	24335	25.4	1
0	24336	25.4	0
0	24337	25.4	1
0	24338	25.4	2
0	24339	25.4	1
0	24340	25.4	1
0	24341	25.4	1
0	24342	25.4	0
0	24385	25.45	1
0	24386	25.45	2
0	24387	25.45	1
0	24388	25.45	1
0	24389	25.45	1
0	24390	25.45	0
0	24409	25.5	1
0	24410	25.5	2
0	24411	25.5	1
0	24412	25.5	1
0	24413	25.5	1
0	24414	25.5	0
0	24415	25.5	1
0	24416	25.5	2
0	24417	25.5	1
0	24418	25.5	1
0	24419	25.5	1
0	24420	25.5	0
0	24449	25.55	1
0	24450	25.55	2
0	24451	25.55	1
0	24452	25.55	1
0	24453	25.55	1
0	24454	25.55	0
0	24473	25.6	1
0	24474	25.6	2
0	24475	25.6	1
0	24476	25.6	1
0	24477	25.6	1
0	24478	25.6	0
0	24479	25.6	1
0	24480	25.6	2
0	24481	25.6	1
0	24482	25.6	1
0	24483	25.6	1
0	24484	25.6	0
0	24513	25.65	1
0	24514	25.65	2
0	24515	25.65	1
0	24516	25.65	1
0	24517	25.65	1
0	24518	25.65	0
0	24537	25.7	1
0	24538	25.7	2
0	24539	25.7	1
0	24540	25.7	1
0	24541	25.7	1
0	24542	25.7	0
0	24543	25.7	1
0	24544	25.7	2
0	24545	25.7	1
0	24546	25.7	1
0	24547	25.7	1
0	24548	25.7	0
0	24577	25.75	1
0	24578	25.75	2
0	24579	25.75	1
0	24580	25.75	1
0	24581	25.75	1
0	24582	25.75	0
0	24601	25.8	1
0	24602	25.8	2
0	24603	25.8	1
0	24604	25.8	1
0	24605	25.8	1
0	24606	25.8	0
0	24607	25.8	1
0	24608	25.8	2
0	24609	25.8	1
0	24610	25.8	1
0	24611	25.8	1
0	24612	25.8	0
0	24655	25.85	1
0	24656	25.85	2
0	24657	25.85	1
0	24658	25.85	1
0	24659	25.85	1
0	24660	25.85	0
0	24679	25.9	1
0	24680	25.9	2
0	24681	25.9	1
0	24682	25.9	1
0	24683	25.9	1
0	24684	25.9	0
0	24685	25.9	1
0	24686	25.9	2
0	24687	25.9	1
0	24688	25.9	1
0	24689	25.9	1
0	24690	25.9	0
0	24719	25.95	1
0	24720	25.95	2
0	24721	25.95	1
0	24722	25.95	1
0	24723	25.95	1
0	24724	25.95	0
0	24757	26	1
0	24758	26	2
0	24759	26	1
0	24760	26	1
0	24761	26	1
0	24762	26	0
0	24763	26	1
0	24764	26	2
0	24765	26	1
0	24766	26	1
0	24767	26	1
0	24768	26	0
0	24797	26.05	1
0	24798	26.05	2
0	24799	26.05	1
0	24800	26.05	1
0	24801	26.05	1
0	24802	26.05	0
0	24835	26.1	1
0	24836	26.1	2
0	24837	26.1	1
0	24838	26.1	1
0	24839	26.1	1
0	24840	26.1	0
0	24841	26.1	1
0	24842	26.1	2
0	24843	26.1	1
0	24844	26.1	1
0	24845	26.1	1
0	24846	26.1	0
0	24889	26.15	1
0	24890	26.15	2
0	24891	26.15	1
0	24892	26.15	1
0	24893	26.15	1
0	24894	26.15	0
0	24913	26.2	1
0	24914	26.2	2
0	24915	26.2	1
0	24916	26.2	1
0	24917	26.2	1
0	24918	26.2	0
0	24919	26.2	1
0	24920	26.2	2
0	24921	26.2	1
0	24922	26.2	1
0	24923	26.2	1
0	24924	26.2	0
0	24967	26.25	1
0	24968	26.25	2
0	24969	26.25	1
0	24970	26.25	1
0	24971	26.25	1
0	24972	26.25	0
0	25005	26.3	1
0	25006	26.3	2
0	25007	26.3	1
0	25008	26.3	1
0	25009	26.3	1
0	25010	26.3	0
0	25011	26.3	1
0	25012	26.3	2
0	25013	26.3	1
0	25014	26.3	1
0	25015	26.3	1
0	25016	26.3	0
0	25045	26.35	1
0	25046	26.35	2
0	25047	26.35	1
0	25048	26.35	1
0	25049	26.35	1
0	25050	26.35	0
0	25083	26.4	1
0	25084	26.4	2
0	25085	26.4	1
0	25086	26.4	1
0	25087	26.4	1
0	25088	26.4	0
0	25089	26.4	1
0	25090	26.4	2
0	25091	26.4	1
0	25092	26.4	1
0	25093	26.4	1
0	25094	26.4	0
0	25123	26.45	1
0	25124	26.45	2
0	25125	26.45	1
0	25126	26.45	1
0	25127	26.45	1
0	25128	26.45	0
0	25147	26.5	1
0	25148	26.5	2
0	25149	26.5	1
0	25150	26.5	1
0	25151	26.5	1
0	25152	26.5	0
0	25153	26.5	1
0	25154	26.5	2
0	25155	26.5	1
0	25156	26.5	1
0	25157	26.5	1
0	25158	26.5	0
0	25201	26.55	1
0	25202	26.55	2
0	25203	26.55	1
0	25204	26.55	1
0	25205	26.55	1
0	25206	26.55	0
0	25225	26.6	1
0	25226	26.6	2
0	25227	26.6	1
0	25228	26.6	1
0	25229	26.6	1
0	25230	26.6	0
0	25231	26.6	1
0	25232	26.6	2
0	25233	26.6	1
0	25234	26.6	1
0	25235	26.6	1
0	25236	26.6	0
0	25279	26.65	1
0	25280	26.65	2
0	25281	26.65	1
0	25282	26.65	1
0	25283	26.65	1
0	25284	26.65	0
0	25317	26.7	1
0	25318	26.7	2
0	25319	26.7	1
0	25320	26.7	1
0	25321	26.7	1
0	25322	26.7	0
0	25323	26.7	1
0	25324	26.7	2
0	25325	26.7	1
0	25326	26.7	1
0	25327	26.7	1
0	25328	26.7	0
0	25357	26.75	1
0	25358	26.75	2
0	25359	26.75	1
0	25360	26.75	1
0	25361	26.75	1
0	25362	26.75	0
0	25395	26.8	1
0	25396	26.8	2
0	25397	26.8	1
0	25398	26.8	1
0	25399	26.8	1
0	25400	26.8	0
0	25401	26.8	1
0	25402	26.8	2
0	25403	26.8	1
0	25404	26.8	1
0	25405	26.8	1
0	25406	26.8	0
0	25449	26.85	1
0	25450	26.85	2
0	25451	26.85	1
0	25452	26.85	1
0	25453	26.85	1
0	25454	26.85	0
0	25473	26.9	1
0	25474	26.9	2
0	25475	26.9	1
0	25476	26.9	1
0	25477	26.9	1
0	25478	26.9	0
0	25479	26.9	1
0	25480	26.9	2
0	25481	26.9	1
0	25482	26.9	1
0	25483	26.9	1
0	25484	26.9	0
0	25527	26.95	1
0	25528	26.95	2
0	25529	26.95	1
0	25530	26.95	1
0	25531	26.95	1
0	25532	26.95	0
0	25556	27	1
0	25557	27	2
0	25558	27	1
0	25559	27	1
0	25560	27	1
0	25561	27	0
0	25562	27	1
0	25563	27	2
0	25564	27	1
0	25565	27	1
0	25566	27	1
0	25567	27	0
0	25596	27.05	1
0	25597	27.05	2
0	25598	27.05	1
0	25599	27.05	1
0	25600	27.05	1
0	25601	27.05	0
0	25634	27.1	1
0	25635	27.1	2
0	25636	27.1	1
0	25637	27.1	1
0	25638	27.1	1
0	25639	27.1	0
0	25640	27.1	1
0	25641	27.1	2
0	25642	27.1	1
0	25643	27.1	1
0	25644	27.1	1
0	25645	27.1	0
0	25674	27.15	1
0	25675	27.15	2
0	25676	27.15	1
0	25677	27.15	1
0	25678	27.15	1
0	25679	27.15	0
0	25712	27.2	1
0	25713	27.2	2
0	25714	27.2	1
0	25715	27.2	1
0	25716	27.2	1
0	25717	27.2	0
0	25718	27.2	1
0	25719	27.2	2
0	25720	27.2	1
0	25721	27.2	1
0	25722	27.2	1
0	25723	27.2	0
0	25766	27.25	1
0	25767	27.25	2
0	25768	27.25	1
0	25769	27.25	1
0	25770	27.25	1
0	25771	27.25	0
0	25790	27.3	1
0	25791	27.3	2
0	25792	27.3	1
0	25793	27.3	1
0	25794	27.3	1
0	25795	27.3	0
0	25796	27.3	1
0	25797	27.3	2
0	25798	27.3	1
0	25799	27.3	1
0	25800	27.3	1
0	25801	27.3	0
0	25844	27.35	1
0	25845	27.35	2
0	25846	27.35	1
0	25847	27.35	1
0	25848	27.35	1
0	25849	27.35	0
0	25882	27.4	1
0	25883	27.4	2
0	25884	27.4	1
0	25885	27.4	1
0	25886	27.4	1
0	25887	27.4	0
0	25888	27.4	1
0	25889	27.4	2
0	25890	27.4	1
0	25891	27.4	1
0	25892	27.4	1
0	25893	27.4	0
0	25922	27.45	1
0	25923	27.45	2
0	25924	27.45	1
0	25925	27.45	1
0	25926	27.45	1
0	25927	27.45	0
0	25960	27.5	1
0	25961	27.5	2
0	25962	27.5	1
0	25963	27.5	1
0	25964	27.5	1
0	25965	27.5	0
0	25966	27.5	1
0	25967	27.5	2
0	25968	27.5	1
0	25969	27.5	1
0	25970	27.5	1
0	25971	27.5	0
0	26000	27.55	1
0	26001	27.55	2
0	26002	27.55	1
0	26003	27.55	1
0	26004	27.55	1
0	26005	27.55	0
0	26024	27.6	1
0	26025	27.6	2
0	26026	27.6	1
0	26027	27.6	1
0	26028	27.6	1
0	26029	27.6	0
0	26030	27.6	1
0	26031	27.6	2
0	26032	27.6	1
0	26033	27.6	1
0	26034	27.6	1
0	26035	27.6	0
0	26078	27.65	1
0	26079	27.65	2
0	26080	27.65	1
0	26081	27.65	1
0	26082	27.65	1
0	26083	27.65	0
0	26102	27.7	1
0	26103	27.7	2
0	26104	27.7	1
0	26105	27.7	1
0	26106	27.7	1
0	26107	27.7	0
0	26108	27.7	1
0	26109	27.7	2
0	26110	27.7	1
0	26111	27.7	1
0	26112	27.7	1
0	26113	27.7	0
0	26156	27.75	1
0	26157	27.75	2
0	26158	27.75	1
0	26159	27.75	1
0	26160	27.75	1
0	26161	27.75	0
0	26194	27.8	1
0	26195	27.8	2
0	26196	27.8	1
0	26197	27.8	1
0	26198	27.8	1
0	26199	27.8	0
0	26200	27.8	1
0	26201	27.8	2
0	26202	27.8	1
0	26203	27.8	1
0	26204	27.8	1
0	26205	27.8	0
0	26234	27.85	1
0	26235	27.85	2
0	26236	27.85	1
0	26237	27.85	1
0	26238	27.85	1
0	26239	27.85	0
0	26272	27.9	1
0	26273	27.9	2
0	26274	27.9	1
0	26275	27.9	1
0	26276	27.9	1
0	26277	27.9	0
0	26278	27.9	1
0	26279	27.9	2
0	26280	27.9	1
0	26281	27.9	1
0	26282	27.9	1
0	26283	27.9	0
0	26326	27.95	1
0	26327	27.95	2
0	26328	27.95	1
0	26329	27.95	1
0	26330	27.95	1
0	26331	27.95	0
0	26350	28	1
0	26351	28	2
0	26352	28	1
0	26353	28	1
0	26354	28	1
0	26355	28	0
0	26356	28	1
0	26357	28	2
0	26358	28	1
0	26359	28	1
0	26360	28	1
0	26361	28	0
0	26404	28.05	1
0	26405	28.05	2
0	26406	28.05	1
0	26407	28.05	1
0	26408	28.05	1
0	26409	28.05	0
0	26428	28.1	1
0	26429	28.1	2
0	26430	28.1	1
0	26431	28.1	1
0	26432	28.1	1
0	26433	28.1	0
0	26434	28.1	1
0	26435	28.1	2
0	26436	28.1	1
0	26437	28.1	1
0	26438	28.1	1
0	26439	28.1	0
0	26468	28.15	1
0	26469	28.15	2
0	26470	28.15	1
0	26471	28.15	1
0	26472	28.15	1
0	26473	28.15	0
0	26506	28.2	1
0	26507	28.2	2
0	26508	28.2	1
0	26509	28.2	1
0	26510	28.2	1
0	26511	28.2	0
0	26512	28.2	1
0	26513	28.2	2
0	26514	28.2	1
0	26515	28.2	1
0	26516	28.2	1
0	26517	28.2	0
0	26546	28.25	1
0	26547	28.25	2
0	26548	28.25	1
0	26549	28.25	1
0	26550	28.25	1
0	26551	28.25	0
0	26584	28.3	1
0	26585	28.3	2
0	26586	28.3	1
0	26587	28.3	1
0	26588	28.3	1
0	26589	28.3	0
0	26590	28.3	1
0	26591	28.3	2
0	26592	28.3	1
0	26593	28.3	1
0	26594	28.3	1
0	26595	28.3	0
0	26638	28.35	1
0	26639	28.35	2
0	26640	28.35	1
0	26641	28.35	1
0	26642	28.35	1
0	26643	28.35	0
0	26662	28.4	1
0	26663	28.4	2
0	26664	28.4	1
0	26665	28.4	1
0	26666	28.4	1
0	26667	28.4	0
0	26668	28.4	1
0	26669	28.4	2
0	26670	28.4	1
0	26671	28.4	1
0	26672	28.4	1
0	26673	28.4	0
0	26716	28.45	1
0	26717	28.45	2
0	26718	28.45	1
0	26719	28.45	1
0	26720	28.45	1
0	26721	28.45	0
0	26754	28.5	1
0	26755	28.5	2
0	26756	28.5	1
0	26757	28.5	1
0	26758	28.5	1
0	26759	28.5	0
0	26760	28.5	1
0	26761	28.5	2
0	26762	28.5	1
0	26763	28.5	1
0	26764	28.5	1
0	26765	28.5	0
0	26794	28.55	1
0	26795	28.55	2
0	26796	28.55	1
0	26797	28.55	1
0	26798	28.55	1
0	26799	28.55	0
0	26821	28.6	1
0	26822	28.6	2
0	26823	28.6	1
0	26824	28.6	1
0	26825	28.6	1
0	26826	28.6	0
0	26827	28.6	1
0	26828	28.6	2
0	26829	28.6	1
0	26830	28.6	1
0	26831	28.6	1
0	26832	28.6	0
0	26861	28.65	1
0	26862	28.65	2
0	26863	28.65	1
0	26864	28.65	1
0	26865	28.65	1
0	26866	28.65	0
0	26885	28.7	1
0	26886	28.7	2
0	26887	28.7	1
0	26888	28.7	1
0	26889	28.7	1
0	26890	28.7	0
0	26891	28.7	1
0	26892	28.7	2
0	26893	28.7	1
0	26894	28.7	1
0	26895	28.7	1
0	26896	28.7	0
0	26925	28.75	1
0	26926	28.75	2
0	26927	28.75	1
0	26928	28.75	1
0	26929	28.75	1
0	26930	28.75	0
0	26949	28.8	1
0	26950	28.8	2
0	26951	28.8	1
0	26952	28.8	1
0	26953	28.8	1
0	26954	28.8	0
0	26955	28.8	1
0	26956	28.8	2
0	26957	28.8	1
0	26958	28.8	1
0	26959	28.8	1
0	26960	28.8	0
0	26992	28.85	1
0	26993	28.85	2
0	26994	28.85	1
0	26995	28.85	1
0	26996	28.85	1
0	26997	28.85	0
0	27030	28.9	1
0	27031	28.9	2
0	27032	28.9	1
0	27033	28.9	1
0	27034	28.9	1
0	27035	28.9	0
0	27036	28.9	1
0	27037	28.9	2
0	27038	28.9	1
0	27039	28.9	1
0	27040	28.9	1
0	27041	28.9	0
0	27070	28.95	1
0	27071	28.95	2
0	27072	28.95	1
0	27073	28.95	1
0	27074	28.95	1
0	27075	28.95	0
0	27094	29	1
0	27095	29	2
0	27096	29	1
0	27097	29	1
0	27098	29	1
0	27099	29	0
0	27100	29	1
0	27101	29	2
0	27102	29	1
0	27103	29	1
0	27104	29	1
0	27105	29	0
0	27148	29.05	1
0	27149	29.05	2
0	27150	29.05	1
0	27151	29.05	1
0	27152	29.05	1
0	27153	29.05	0
0	27172	29.1	1
0	27173	29.1	2
0	27174	29.1	1
0	27175	29.1	1
0	27176	29.1	1
0	27177	29.1	0
0	27178	29.1	1
0	27179	29.1	2
0	27180	29.1	1
0	27181	29.1	1
0	27182	29.1	1
0	27183	29.1	0
0	27212	29.15	1
0	27213	29.15	2
0	27214	29.15	1
0	27215	29.15	1
0	27216	29.15	1
0	27217	29.15	0
0	27236	29.2	1
[...]
1	1080	0.181	-nan
1	1081	0.181	-nan
1	1082	0.181	-nan
1	1083	0.181	-nan
1	1084	0.181	-nan
1	1091	0.182	-nan
1	1092	0.182	-nan
1	1093	0.182	-nan
1	1094	0.182	-nan
1	1095	0.182	-nan
1	1096	0.182	-nan
1	1103	0.183	-nan
1	1104	0.183	-nan
1	1105	0.183	-nan
1	1106	0.183	-nan
1	1107	0.183	-nan
1	1108	0.183	-nan
1	1115	0.184	-nan
1	1116	0.184	-nan
1	1117	0.184	-nan
1	1118	0.184	-nan
1	1119	0.184	-nan
1	1120	0.184	-nan
1	1127	0.185	-nan
1	1128	0.185	-nan
1	1129	0.185	-nan
1	1130	0.185	-nan
1	1131	0.185	-nan
1	1132	0.185	-nan
1	1139	0.186	-nan
1	1140	0.186	-nan
1	1141	0.186	-nan
1	1142	0.186	-nan
1	1143	0.186	-nan
1	1144	0.186	-nan
1	1151	0.187	-nan
1	1152	0.187	-nan
1	1153	0.187	-nan
1	1154	0.187	-nan
1	1155	0.187	-nan
1	1156	0.187	-nan
1	1163	0.188	-nan
1	1164	0.188	-nan
1	1165	0.188	-nan
1	1166	0.188	-nan
1	1167	0.188	-nan
1	1168	0.188	-nan
1	1175	0.189	-nan
1	1176	0.189	-nan
1	1177	0.189	-nan
1	1178	0.189	-nan
1	1179	0.189	-nan
1	1180	0.189	-nan
1	1187	0.19	-nan
1	1188	0.19	-nan
1	1189	0.19	-nan
1	1190	0.19	-nan
1	1191	0.19	-nan
1	1192	0.19	-nan
1	1199	0.191	-nan
1	1200	0.191	-nan
1	1201	0.191	-nan
1	1202	0.191	-nan
1	1203	0.191	-nan
1	1204	0.191	-nan
1	1211	0.192	-nan
1	1212	0.192	-nan
1	1213	0.192	-nan
1	1214	0.192	-nan
1	1215	0.192	-nan
1	1216	0.192	-nan
1	1223	0.193	-nan
1	1224	0.193	-nan
1	1225	0.193	-nan
1	1226	0.193	-nan
1	1227	0.193	-nan
1	1228	0.193	-nan
1	1235	0.194	-nan
1	1236	0.194	-nan
1	1237	0.194	-nan
1	1238	0.194	-nan
1	1239	0.194	-nan
1	1240	0.194	-nan
1	1247	0.195	-nan
1	1248	0.195	-nan
1	1249	0.195	-nan
1	1250	0.195	-nan
1	1251	0.195	-nan
1	1252	0.195	-nan
1	1259	0.196	-nan
1	1260	0.196	-nan
1	1261	0.196	-nan
1	1262	0.196	-nan
1	1263	0.196	-nan
1	1264	0.196	-nan
1	1271	0.197	-nan
1	1272	0.197	-nan
1	1273	0.197	-nan
1	1274	0.197	-nan
1	1275	0.197	-nan
1	1276	0.197	-nan
1	1283	0.198	-nan
1	1284	0.198	-nan
1	1285	0.198	-nan
1	1286	0.198	-nan
1	1287	0.198	-nan
1	1288	0.198	-nan
1	1295	0.199	-nan
1	1296	0.199	-nan
1	1297	0.199	-nan
1	1298	0.199	-nan
1	1299	0.199	-nan
1	1300	0.199	-nan
2	6742	6.638032534095	141
2	6752	6.642672534095	282
2	6783	6.651872534095	423
2	6793	6.656512534095	564
2	6803	6.665712534095	705
2	6813	6.670352534095	846
2	6823	6.679552534095	987
2	6833	6.684192534095	1128
2	6843	6.693392534095	1269
2	6853	6.698032534095	1410
2	6903	6.707232534095	1551
2	6913	6.711872534095	1692
2	6920	6.721072534095	1833
2	6930	6.725712534095	1974
2	6940	6.734912534095	2115
2	6950	6.739552534095	2256
2	6960	6.748752534095	2397
2	6996	6.753392534095	2538
2	7013	6.762592534095	2679
2	7028	6.767232534095	2820
2	7038	6.776432534095	2961
2	7048	6.781072534095	3102
2	7058	6.790272534095	3243
2	7068	6.794912534095	3384
2	7118	6.804112534095	3525
2	7128	6.808752534095	3666
2	7138	6.817952534095	3807
2	7148	6.822592534095	3948
2	7158	6.831792534095	4089
2	7169	6.845632534095	4230
2	7203	6.850272534095	4371
2	7213	6.859472534095	4512
2	7223	6.864112534095	4653
2	7233	6.873312534095	4794
2	7243	6.877952534095	4935
2	7253	6.887152534095	5076
2	7263	6.891792534095	5217
2	7313	6.900992534095	5358
2	7323	6.905632534095	5499
2	7333	6.914832534095	5640
2	7343	6.919472534095	5781
2	7353	6.928672534095	5922
2	7360	6.933312534095	6063
2	7370	6.942512534095	6204
2	7380	6.947152534095	6345
2	7411	6.956352534095	6486
2	7421	6.960992534095	6627
2	7431	6.970192534095	6768
2	7441	6.974832534095	6909
2	7451	6.984032534095	7050
2	7461	6.988672534095	7191
2	7517	7.002512534095	7332
2	7527	7.011712534095	7473
2	7537	7.016352534095	7614
2	7547	7.025552534095	7755
2	7554	7.030192534095	7896
2	7564	7.039392534095	8037
2	7574	7.044032534095	8178
2	7608	7.053232534095	8319
2	7618	7.057872534095	8460
2	7628	7.067072534095	8601
2	7638	7.071712534095	8742
2	7648	7.080912534095	8883
2	7658	7.085552534095	9024
2	7668	7.094752534095	9165
2	7678	7.099392534095	9306
2	7728	7.108592534095	9447
2	7738	7.113232534095	9588
2	7748	7.122432534095	9729
2	7758	7.127072534095	9870
2	7769	7.140912534095	10011
2	7813	7.150112534095	10152
2	7819	7.154752534095	10293
2	7839	7.163952534095	10434
2	8050	7.168592534095	10575
2	8072	7.177792534095	10716
2	8084	7.182432534095	10857
2	8094	7.191632534095	10998
2	8100	7.192293385287	11139
2	8111	7.196272534095	11280
2	8161	7.205472534095	11421
2	8167	7.206133385287	11562
2	8181	7.210112534095	11703
2	8191	7.219312534095	11844
2	8197	7.219973385287	11985
2	8211	7.223952534095	12126
2	8221	7.233152534095	12267
2	8227	7.233813385287	12408
2	8241	7.237792534095	12549
2	8251	7.246992534095	12690
2	8257	7.247653385287	12831
2	8295	7.251632534095	12972
2	8305	7.260832534095	13113
2	8311	7.261493385287	13254
2	8326	7.274672534095	13395
2	8332	7.275333385287	13536
2	8346	7.279312534095	13677
2	8356	7.288512534095	13818
2	8362	7.289173385287	13959
2	8376	7.293152534095	14100
2	8428	7.302352534095	14241
2	8434	7.303013385287	14382
2	8444	7.306992534095	14523
2	8462	7.316192534095	14664
2	8468	7.316853385287	14805
2	8482	7.320832534095	14946
2	8492	7.330032534095	15087
2	8498	7.330693385287	15228
2	8509	7.334672534095	15369
2	8516	7.343872534095	15510
2	8527	7.348512534095	15651
2	8561	7.357712534095	15792
2	8567	7.358373385287	15933
2	8581	7.362352534095	16074
2	8591	7.371552534095	16215
2	8597	7.372213385287	16356
2	8611	7.376192534095	16497
2	8621	7.385392534095	16638
2	8627	7.386053385287	16779
2	8641	7.390032534095	16920
2	8651	7.399232534095	17061
2	8657	7.399893385287	17202
2	8711	7.403872534095	17343
2	8721	7.413072534095	17484
2	8727	7.413733385287	17625
2	8741	7.417712534095	17766
2	8751	7.426912534095	17907
2	8757	7.427573385287	18048
2	8771	7.431552534095	18189
2	8781	7.440752534095	18330
2	8787	7.441413385287	18471
2	8801	7.445392534095	18612
2	8832	7.454592534095	18753
2	8838	7.455253385287	18894
2	8852	7.459232534095	19035
2	8862	7.468432534095	19176
2	8868	7.469093385287	19317
2	8882	7.473072534095	19458
2	8892	7.482272534095	19599
2	8898	7.482933385287	19740
2	8912	7.486912534095	19881
2	8919	7.496112534095	20022
2	8925	7.496773385287	20163
2	8979	7.500752534095	20304
2	8986	7.509952534095	20445
2	8992	7.510613385287	20586
2	9006	7.514592534095	20727
2	9013	7.523792534095	20868
2	9019	7.524453385287	21009
2	9033	7.528432534095	21150
2	9043	7.537632534095	21291
2	9049	7.538293385287	21432
2	9063	7.542272534095	21573
2	9097	7.551472534095	21714
2	9103	7.552133385287	21855
2	9117	7.556112534095	21996
2	9125	7.565973385287	22137
2	9135	7.569952534095	22278
2	9145	7.579152534095	22419
2	9151	7.579813385287	22560
2	9165	7.583792534095	22701
2	9175	7.592992534095	22842
2	9181	7.593653385287	22983
2	9195	7.597632534095	23124
2	9245	7.606832534095	23265
2	9251	7.607493385287	23406
2	9265	7.611472534095	23547
2	9275	7.620672534095	23688
2	9281	7.621333385287	23829
2	9295	7.625312534095	23970
2	9305	7.634512534095	24111
2	9311	7.635173385287	24252
2	9325	7.639152534095	24393
2	9336	7.649013385287	24534
2	9370	7.652992534095	24675
2	9380	7.662192534095	24816
2	9386	7.662853385287	24957
2	9400	7.666832534095	25098
2	9410	7.676032534095	25239
2	9416	7.676693385287	25380
2	9430	7.680672534095	25521
2	9440	7.689872534095	25662
2	9446	7.690533385287	25803
2	9507	7.703712534095	25944
2	9513	7.704373385287	26085
2	9527	7.708352534095	26226
2	9537	7.717552534095	26367
2	9543	7.718213385287	26508
2	9557	7.722192534095	26649
2	9567	7.731392534095	26790
2	9573	7.732053385287	26931
2	9587	7.736032534095	27072
2	9597	7.745232534095	27213
2	9603	7.745893385287	27354
2	9617	7.749872534095	27495
2	9651	7.759072534095	27636
2	9657	7.759733385287	27777
2	9671	7.763712534095	27918
2	9681	7.772912534095	28059
2	9687	7.773573385287	28200
2	9701	7.777552534095	28341
2	9711	7.786752534095	28482
2	9717	7.787413385287	28623
2	9731	7.791392534095	28764
2	9781	7.800592534095	28905
2	9787	7.801253385287	29046
2	9801	7.805232534095	29187
2	9811	7.814432534095	29328
2	9817	7.815093385287	29469
2	9831	7.819072534095	29610
2	9841	7.828272534095	29751
2	9847	7.828933385287	29892
2	9861	7.832912534095	30033
2	9871	7.842112534095	30174
2	9877	7.842773385287	30315
2	9891	7.846752534095	30456
2	9925	7.855952534095	30597
2	9931	7.856613385287	30738
2	9945	7.860592534095	30879
2	9955	7.869792534095	31020
2	9961	7.870453385287	31161
2	9975	7.874432534095	31302
2	9985	7.883632534095	31443
2	9991	7.884293385287	31584
2	10005	7.888272534095	31725
2	10015	7.897472534095	31866
2	10021	7.898133385287	32007
2	10075	7.902112534095	32148
2	10086	7.911973385287	32289
2	10096	7.915952534095	32430
2	10106	7.925152534095	32571
2	10112	7.925813385287	32712
2	10126	7.929792534095	32853
2	10136	7.938992534095	32994
2	10142	7.939653385287	33135
2	10156	7.943632534095	33276
2	10190	7.952832534095	33417
2	10196	7.953493385287	33558
2	10210	7.957472534095	33699
2	10220	7.966672534095	33840
2	10226	7.967333385287	33981
2	10240	7.971312534095	34122
2	10251	7.981173385287	34263
2	10261	7.985152534095	34404
2	10271	7.994352534095	34545
2	10277	7.995013385287	34686
2	10288	7.998992534095	34827
2	10338	8.008192534095	34968
2	10344	8.008853385287	35109
2	10358	8.012832534095	35250
2	10371	8.022693385287	35391
2	10389	8.036533385287	35532
2	10490	8.050373385287	35673
2	10496	8.050821727181	35814
2	10507	8.055461727181	35955
2	10517	8.064213385287	36096
2	10523	8.064661727181	36237
2	10537	8.069301727181	36378
2	10547	8.078053385287	36519
2	10553	8.078501727181	36660
2	10567	8.083141727181	36801
2	10577	8.091893385287	36942
2	10583	8.092341727181	37083
2	10597	8.096981727181	37224
2	10647	8.105733385287	37365
2	10653	8.106181727181	37506
2	10667	8.110821727181	37647
2	10677	8.119573385287	37788
2	10683	8.120021727181	37929
2	10697	8.124661727181	38070
2	10707	8.133413385287	38211
2	10713	8.133861727181	38352
2	10727	8.138501727181	38493
2	10737	8.147253385287	38634
2	10743	8.147701727181	38775
2	10785	8.152341727181	38916
2	10798	8.161093385287	39057
2	10804	8.161541727181	39198
2	10814	8.166181727181	39339
2	10835	8.174933385287	39480
2	10841	8.175381727181	39621
2	10859	8.180021727181	39762
2	10869	8.188773385287	39903
2	10875	8.189221727181	40044
2	10894	8.193861727181	40185
2	10944	8.202613385287	40326
2	10954	8.207701727181	40467
2	10964	8.216453385287	40608
2	10974	8.221541727181	40749
2	10984	8.230293385287	40890
2	10994	8.235381727181	41031
2	11009	8.244133385287	41172
2	11043	8.257973385287	41313
2	11050	8.271813385287	41454
2	11060	8.285653385287	41595
2	11070	8.299493385287	41736
2	11132	8.313333385287	41877
2	11149	8.327173385287	42018
2	11155	8.328453385287	42159
2	11169	8.341013385287	42300
2	11203	8.354853385287	42441
2	11210	8.368693385287	42582
2	11220	8.382533385287	42723
2	11230	8.396373385287	42864
2	11280	8.410213385287	43005
2	11290	8.424053385287	43146
2	11325	8.451733385287	43287
2	11335	8.465573385287	43428
2	11345	8.479413385287	43569
2	11355	8.493253385287	43710
2	11405	8.507093385287	43851
2	11415	8.520933385287	43992
2	11425	8.534773385287	44133
2	11435	8.548613385287	44274
2	11855	9.078453385287	44415
2	11865	9.092293385287	44556
2	11915	9.106133385287	44697
2	11925	9.119973385287	44838
2	11935	9.133813385287	44979
2	11945	9.147653385287	45120
3	6742	6.638032534095	141
3	6752	6.642672534095	282
3	6783	6.651872534095	423
3	6793	6.656512534095	564
3	6803	6.665712534095	705
3	6813	6.670352534095	846
3	6823	6.679552534095	987
3	6833	6.684192534095	1128
3	6843	6.693392534095	1269
3	6853	6.698032534095	1410
3	6903	6.707232534095	1551
3	6913	6.711872534095	1692
3	6920	6.721072534095	1833
3	6930	6.725712534095	1974
3	6940	6.734912534095	2115
3	6950	6.739552534095	2256
3	6960	6.748752534095	2397
3	6996	6.753392534095	2538
3	7013	6.762592534095	2679
3	7028	6.767232534095	2820
3	7038	6.776432534095	2961
3	7048	6.781072534095	3102
3	7058	6.790272534095	3243
3	7068	6.794912534095	3384
3	7118	6.804112534095	3525
3	7128	6.808752534095	3666
3	7138	6.817952534095	3807
3	7148	6.822592534095	3948
3	7158	6.831792534095	4089
3	7169	6.845632534095	4230
3	7203	6.850272534095	4371
3	7213	6.859472534095	4512
3	7223	6.864112534095	4653
3	7233	6.873312534095	4794
3	7243	6.877952534095	4935
3	7253	6.887152534095	5076
3	7263	6.891792534095	5217
3	7313	6.900992534095	5358
3	7323	6.905632534095	5499
3	7333	6.914832534095	5640
3	7343	6.919472534095	5781
3	7353	6.928672534095	5922
3	7360	6.933312534095	6063
3	7370	6.942512534095	6204
3	7380	6.947152534095	6345
3	7411	6.956352534095	6486
3	7421	6.960992534095	6627
3	7431	6.970192534095	6768
3	7441	6.974832534095	6909
3	7451	6.984032534095	7050
3	7461	6.988672534095	7191
3	7517	7.002512534095	7332
3	7527	7.011712534095	7473
3	7537	7.016352534095	7614
3	7547	7.025552534095	7755
3	7554	7.030192534095	7896
3	7564	7.039392534095	8037
3	7574	7.044032534095	8178
3	7608	7.053232534095	8319
3	7618	7.057872534095	8460
3	7628	7.067072534095	8601
3	7638	7.071712534095	8742
3	7648	7.080912534095	8883
3	7658	7.085552534095	9024
3	7668	7.094752534095	9165
3	7678	7.099392534095	9306
3	7728	7.108592534095	9447
3	7738	7.113232534095	9588
3	7748	7.122432534095	9729
3	7758	7.127072534095	9870
3	7769	7.140912534095	10011
3	7813	7.150112534095	10152
3	7819	7.154752534095	10293
3	7839	7.163952534095	10434
3	8050	7.168592534095	10575
3	8072	7.177792534095	10716
3	8084	7.182432534095	10857
3	8094	7.191632534095	10998
3	8100	7.192293385287	11139
3	8111	7.196272534095	11280
3	8161	7.205472534095	11421
3	8167	7.206133385287	11562
3	8181	7.210112534095	11703
3	8191	7.219312534095	11844
3	8197	7.219973385287	11985
3	8211	7.223952534095	12126
3	8221	7.233152534095	12267
3	8227	7.233813385287	12408
3	8241	7.237792534095	12549
3	8251	7.246992534095	12690
3	8257	7.247653385287	12831
3	8295	7.251632534095	12972
3	8305	7.260832534095	13113
3	8311	7.261493385287	13254
3	8326	7.274672534095	13395
3	8332	7.275333385287	13536
3	8346	7.279312534095	13677
3	8356	7.288512534095	13818
3	8362	7.289173385287	13959
3	8376	7.293152534095	14100
3	8428	7.302352534095	14241
3	8434	7.303013385287	14382
3	8444	7.306992534095	14523
3	8462	7.316192534095	14664
3	8468	7.316853385287	14805
3	8482	7.320832534095	14946
3	8492	7.330032534095	15087
3	8498	7.330693385287	15228
3	8509	7.334672534095	15369
3	8516	7.343872534095	15510
3	8527	7.348512534095	15651
3	8561	7.357712534095	15792
3	8567	7.358373385287	15933
3	8581	7.362352534095	16074
3	8591	7.371552534095	16215
3	8597	7.372213385287	16356
3	8611	7.376192534095	16497
3	8621	7.385392534095	16638
3	8627	7.386053385287	16779
3	8641	7.390032534095	16920
3	8651	7.399232534095	17061
3	8657	7.399893385287	17202
3	8711	7.403872534095	17343
3	8721	7.413072534095	17484
3	8727	7.413733385287	17625
3	8741	7.417712534095	17766
3	8751	7.426912534095	17907
3	8757	7.427573385287	18048
3	8771	7.431552534095	18189
3	8781	7.440752534095	18330
3	8787	7.441413385287	18471
3	8801	7.445392534095	18612
3	8832	7.454592534095	18753
3	8838	7.455253385287	18894
3	8852	7.459232534095	19035
3	8862	7.468432534095	19176
3	8868	7.469093385287	19317
3	8882	7.473072534095	19458
3	8892	7.482272534095	19599
3	8898	7.482933385287	19740
3	8912	7.486912534095	19881
3	8919	7.496112534095	20022
3	8925	7.496773385287	20163
3	8979	7.500752534095	20304
3	8986	7.509952534095	20445
3	8992	7.510613385287	20586
3	9006	7.514592534095	20727
3	9013	7.523792534095	20868
3	9019	7.524453385287	21009
3	9033	7.528432534095	21150
3	9043	7.537632534095	21291
3	9049	7.538293385287	21432
3	9063	7.542272534095	21573
3	9097	7.551472534095	21714
3	9103	7.552133385287	21855
3	9117	7.556112534095	21996
3	9125	7.565973385287	22137
3	9135	7.569952534095	22278
3	9145	7.579152534095	22419
3	9151	7.579813385287	22560
3	9165	7.583792534095	22701
3	9175	7.592992534095	22842
3	9181	7.593653385287	22983
3	9195	7.597632534095	23124
3	9245	7.606832534095	23265
3	9251	7.607493385287	23406
3	9265	7.611472534095	23547
3	9275	7.620672534095	23688
3	9281	7.621333385287	23829
3	9295	7.625312534095	23970
3	9305	7.634512534095	24111
3	9311	7.635173385287	24252
3	9325	7.639152534095	24393
3	9336	7.649013385287	24534
3	9370	7.652992534095	24675
3	9380	7.662192534095	24816
3	9386	7.662853385287	24957
3	9400	7.666832534095	25098
3	9410	7.676032534095	25239
3	9416	7.676693385287	25380
3	9430	7.680672534095	25521
3	9440	7.689872534095	25662
3	9446	7.690533385287	25803
3	9507	7.703712534095	25944
3	9513	7.704373385287	26085
3	9527	7.708352534095	26226
3	9537	7.717552534095	26367
3	9543	7.718213385287	26508
3	9557	7.722192534095	26649
3	9567	7.731392534095	26790
3	9573	7.732053385287	26931
3	9587	7.736032534095	27072
3	9597	7.745232534095	27213
3	9603	7.745893385287	27354
3	9617	7.749872534095	27495
3	9651	7.759072534095	27636
3	9657	7.759733385287	27777
3	9671	7.763712534095	27918
3	9681	7.772912534095	28059
3	9687	7.773573385287	28200
3	9701	7.777552534095	28341
3	9711	7.786752534095	28482
3	9717	7.787413385287	28623
3	9731	7.791392534095	28764
3	9781	7.800592534095	28905
3	9787	7.801253385287	29046
3	9801	7.805232534095	29187
3	9811	7.814432534095	29328
3	9817	7.815093385287	29469
3	9831	7.819072534095	29610
3	9841	7.828272534095	29751
3	9847	7.828933385287	29892
3	9861	7.832912534095	30033
3	9871	7.842112534095	30174
3	9877	7.842773385287	30315
3	9891	7.846752534095	30456
3	9925	7.855952534095	30597
3	9931	7.856613385287	30738
3	9945	7.860592534095	30879
3	9955	7.869792534095	31020
3	9961	7.870453385287	31161
3	9975	7.874432534095	31302
3	9985	7.883632534095	31443
3	9991	7.884293385287	31584
3	10005	7.888272534095	31725
3	10015	7.897472534095	31866
3	10021	7.898133385287	32007
3	10075	7.902112534095	32148
3	10086	7.911973385287	32289
3	10096	7.915952534095	32430
3	10106	7.925152534095	32571
3	10112	7.925813385287	32712
3	10126	7.929792534095	32853
3	10136	7.938992534095	32994
3	10142	7.939653385287	33135
3	10156	7.943632534095	33276
3	10190	7.952832534095	33417
3	10196	7.953493385287	33558
3	10210	7.957472534095	33699
3	10220	7.966672534095	33840
3	10226	7.967333385287	33981
3	10240	7.971312534095	34122
3	10251	7.981173385287	34263
3	10261	7.985152534095	34404
3	10271	7.994352534095	34545
3	10277	7.995013385287	34686
3	10288	7.998992534095	34827
3	10338	8.008192534095	34968
3	10344	8.008853385287	35109
3	10358	8.012832534095	35250
3	10371	8.022693385287	35391
3	10389	8.036533385287	35532
3	10490	8.050373385287	35673
3	10496	8.050821727181	35814
3	10507	8.055461727181	35955
3	10517	8.064213385287	36096
3	10523	8.064661727181	36237
3	10537	8.069301727181	36378
3	10547	8.078053385287	36519
3	10553	8.078501727181	36660
3	10567	8.083141727181	36801
3	10577	8.091893385287	36942
3	10583	8.092341727181	37083
3	10597	8.096981727181	37224
3	10647	8.105733385287	37365
3	10653	8.106181727181	37506
3	10667	8.110821727181	37647
3	10677	8.119573385287	37788
3	10683	8.120021727181	37929
3	10697	8.124661727181	38070
3	10707	8.133413385287	38211
3	10713	8.133861727181	38352
3	10727	8.138501727181	38493
3	10737	8.147253385287	38634
3	10743	8.147701727181	38775
3	10785	8.152341727181	38916
3	10798	8.161093385287	39057
3	10804	8.161541727181	39198
3	10814	8.166181727181	39339
3	10835	8.174933385287	39480
3	10841	8.175381727181	39621
3	10859	8.180021727181	39762
3	10869	8.188773385287	39903
3	10875	8.189221727181	40044
3	10894	8.193861727181	40185
3	10944	8.202613385287	40326
3	10954	8.207701727181	40467
3	10964	8.216453385287	40608
3	10974	8.221541727181	40749
3	10984	8.230293385287	40890
3	10994	8.235381727181	41031
3	11009	8.244133385287	41172
3	11043	8.257973385287	41313
3	11050	8.271813385287	41454
3	11060	8.285653385287	41595
3	11070	8.299493385287	41736
3	11132	8.313333385287	41877
3	11149	8.327173385287	42018
3	11155	8.328453385287	42159
3	11169	8.341013385287	42300
3	11203	8.354853385287	42441
3	11210	8.368693385287	42582
3	11220	8.382533385287	42723
3	11230	8.396373385287	42864
3	11280	8.410213385287	43005
3	11290	8.424053385287	43146
3	11325	8.451733385287	43287
3	11335	8.465573385287	43428
3	11345	8.479413385287	43569
3	11355	8.493253385287	43710
3	11405	8.507093385287	43851
3	11415	8.520933385287	43992
3	11425	8.534773385287	44133
3	11435	8.548613385287	44274
3	11855	9.078453385287	44415
3	11865	9.092293385287	44556
3	11915	9.106133385287	44697
3	11925	9.119973385287	44838
3	11935	9.133813385287	44979
3	11945	9.147653385287	45120

