version 2
run B-0-20210216-22:51:46-4840
attr configname B
attr datetime 20210216-22:51:46
attr experiment B
attr inifile GwSimV3_2021.ini
attr iterationvars ""
attr iterationvarsf ""
attr measurement ""
attr network NetworkTormV2
attr processid 4840
attr repetition 0
attr replication #0
attr resultdir results
attr runnumber 0
attr seedset 0
param **.mobility.traceFile "\"AllPaths/mobPaths/B.movements\""
param **.numNodes 11
param **.application.dataGenerationInterval 1s
param **.application.dataSizeInBytes 10
param **.application.ttl 999999s
param **application.nodesThatGen false
param **application.nodesGenMsg "\"\""
param **application.startMultipleMsg false
param **application.numMultipleMsg 100
param **application.hopsListSize 50
param **.application.endGeneratingMsg 149s
param **.routingLayer "\"RoutingLqeGw\""
param **.routing.maximumCacheSize 5000byte
param **.routing.maximumHopCount 25
param **.routing.useTTL false
param **.routing.waitBFsend 0.1
param **.routing.max_age 999999s
param **.routing.gateway_list "\"\""
param **.routing.actual_gateway "\"\""
param **.routing.gwCheckPeriod 5s
param **.neighboring.resetGPeriod 999s
param **.wirelessIfc.wirelessRange 40m
param **.numNodes 2
param **.application.usedRNG 1
param **.application.dataGenerationInterval 1s
param **.application.dataSizeInBytes 10
param **.application.ttl 999999s
param **application.destinationAddr "\"Wf:00:00:00:00:02\""
param **application.destinationBTAddr "\"Bt:00:00:00:00:02\""
param **application.nodesThatGen true
param **application.nodesGenMsg "\"0\""
param **application.startMultipleMsg true
param **application.numMultipleMsg 100
param **application.hopsListSize 50
param **.application.endGeneratingMsg 999999s
param **.routingLayer "\"RoutingLqeGw\""
param **.routing.maximumCacheSize 5000byte
param **.routing.maximumHopCount 25
param **.routing.useTTL false
param **.routing.waitBFsend 0.1
param **.routing.max_age 999999s
param **.routing.gateway_list "\"\""
param **.routing.actual_gateway "\"\""
param **.routing.gwCheckPeriod 5s
param **.neighboring.antiEntropyInterval 500ms
param **.neighboring.maximumRandomBackoffDuration 1s
param **.neighboring.delayPerDataMsg 0.1
param **neighboring.usedRNG 2
param **.neighboring.GWAddr "\"Wf:00:00:00:00:02\""
param **.neighboring.sendWifiFirst true
param **.neighboring.max_age 999999s
param **.neighboring.max_absent_time 1s
param **.neighboring.maxLengthGraph 15
param **.wirelessIfc.wirelessRange 40m
param **.wirelessIfc.neighbourScanInterval 50ms
param **.wirelessIfc.bandwidthBitRate 100000bps
param **.wirelessIfc.wirelessHeaderSize 32byte
param **.wirelessIfc.minSSI -90
param **.wirelessIfc.limitQueueTime 400ms
param **.wirelessIfc.my_limit_rate 0bps
param **.bluetoothIfc.wirelessRange 40m
param **.bluetoothIfc.neighbourScanInterval 100ms
param **.bluetoothIfc.bandwidthBitRate 100000bps
param **.bluetoothIfc.wirelessHeaderSize 16byte
param **.bluetoothIfc.minSSI -90
param **.mobilityType "\"BonnMotionMobility\""
param **.mobility.traceFile "\"paths/Moves2.movements\""
param **.mobility.is3D false
param **.mobility.nodeId -1

vector 0 NetworkTormV2 neighbourhoodSize:vector ETV
attr source neighbourhoodSize
vector 1 NetworkTormV2 deliveryRatio:vector ETV
attr source sum(totalDataBytesReceived)/sum(totalDataBytesReceivableByAllNodes)
vector 2 NetworkTormV2 dataBytesReceivedSum:vector ETV
attr source sum(dataBytesReceived)
vector 3 NetworkTormV2 totalBytesReceivedSum:vector ETV
attr source sum(totalBytesReceived)
0	34	0.05	3
0	35	0.05	5
0	36	0.05	3
0	37	0.05	5
0	38	0.05	8
0	39	0.05	5
0	40	0.05	3
0	41	0.05	5
0	42	0.05	3
0	43	0.05	1
0	44	0.05	1
0	134	0.1	3
0	136	0.1	5
0	138	0.1	3
0	140	0.1	5
0	142	0.1	8
0	144	0.1	5
0	146	0.1	3
0	148	0.1	5
0	150	0.1	3
0	152	0.1	1
0	154	0.1	1
0	156	0.1	3
0	157	0.1	5
0	158	0.1	3
0	159	0.1	5
0	160	0.1	8
0	161	0.1	5
0	162	0.1	3
0	163	0.1	5
0	164	0.1	3
0	165	0.1	1
0	166	0.1	1
0	288	0.15	3
0	289	0.15	5
0	290	0.15	3
0	291	0.15	5
0	292	0.15	8
0	293	0.15	5
0	294	0.15	3
0	295	0.15	5
0	296	0.15	3
0	297	0.15	1
0	298	0.15	1
0	387	0.2	3
0	388	0.2	5
0	389	0.2	3
0	390	0.2	5
0	391	0.2	8
0	392	0.2	5
0	393	0.2	3
0	394	0.2	5
0	395	0.2	3
0	396	0.2	1
0	397	0.2	1
0	399	0.2	3
0	400	0.2	5
0	401	0.2	3
0	402	0.2	5
0	403	0.2	8
0	404	0.2	5
0	405	0.2	3
0	406	0.2	5
0	407	0.2	3
0	408	0.2	1
0	409	0.2	1
0	520	0.25	3
0	521	0.25	5
0	522	0.25	3
0	523	0.25	5
0	524	0.25	8
0	525	0.25	5
0	526	0.25	3
0	527	0.25	5
0	528	0.25	3
0	529	0.25	1
0	530	0.25	1
0	619	0.3	3
0	620	0.3	5
0	621	0.3	3
0	622	0.3	5
0	623	0.3	8
0	624	0.3	5
0	625	0.3	3
0	626	0.3	5
0	627	0.3	3
0	628	0.3	1
0	629	0.3	1
0	631	0.3	3
0	632	0.3	5
0	633	0.3	3
0	634	0.3	5
0	635	0.3	8
0	636	0.3	5
0	637	0.3	3
0	638	0.3	5
0	639	0.3	3
0	640	0.3	1
0	641	0.3	1
0	752	0.35	3
0	753	0.35	5
0	754	0.35	3
0	755	0.35	5
0	756	0.35	8
0	757	0.35	5
0	758	0.35	3
0	759	0.35	5
0	760	0.35	3
0	761	0.35	1
0	762	0.35	1
0	851	0.4	3
0	852	0.4	5
0	853	0.4	3
0	854	0.4	5
0	855	0.4	8
0	856	0.4	5
0	857	0.4	3
0	858	0.4	5
0	859	0.4	3
0	860	0.4	1
0	861	0.4	1
0	863	0.4	3
0	864	0.4	5
0	865	0.4	3
0	866	0.4	5
0	867	0.4	8
0	868	0.4	5
0	869	0.4	3
0	870	0.4	5
0	871	0.4	3
0	872	0.4	1
0	873	0.4	1
0	984	0.45	3
0	985	0.45	5
0	986	0.45	3
0	987	0.45	5
0	988	0.45	8
0	989	0.45	5
0	990	0.45	3
0	991	0.45	5
0	992	0.45	3
0	993	0.45	1
0	994	0.45	1
0	1083	0.5	3
0	1084	0.5	5
0	1085	0.5	3
0	1086	0.5	5
0	1087	0.5	8
0	1088	0.5	5
0	1089	0.5	3
0	1090	0.5	5
0	1091	0.5	3
0	1092	0.5	1
0	1093	0.5	1
0	1095	0.5	3
0	1096	0.5	5
0	1097	0.5	3
0	1098	0.5	5
0	1099	0.5	8
0	1100	0.5	5
0	1101	0.5	3
0	1102	0.5	5
0	1103	0.5	3
0	1104	0.5	1
0	1105	0.5	1
0	1216	0.55	3
0	1217	0.55	5
0	1218	0.55	3
0	1219	0.55	5
0	1220	0.55	8
0	1221	0.55	5
0	1222	0.55	3
0	1223	0.55	5
0	1224	0.55	3
0	1225	0.55	1
0	1226	0.55	1
0	1315	0.6	3
0	1316	0.6	5
0	1317	0.6	3
0	1318	0.6	5
0	1319	0.6	8
0	1320	0.6	5
0	1321	0.6	3
0	1322	0.6	5
0	1323	0.6	3
0	1324	0.6	1
0	1325	0.6	1
0	1327	0.6	3
0	1328	0.6	5
0	1329	0.6	3
0	1330	0.6	5
0	1331	0.6	8
0	1332	0.6	5
0	1333	0.6	3
0	1334	0.6	5
0	1335	0.6	3
0	1336	0.6	1
0	1337	0.6	1
0	1448	0.65	3
0	1449	0.65	5
0	1450	0.65	3
0	1451	0.65	5
0	1452	0.65	8
0	1453	0.65	5
0	1454	0.65	3
0	1455	0.65	5
0	1456	0.65	3
0	1457	0.65	1
0	1458	0.65	1
0	1547	0.7	3
0	1548	0.7	5
0	1549	0.7	3
0	1550	0.7	5
0	1551	0.7	8
0	1552	0.7	5
0	1553	0.7	3
0	1554	0.7	5
0	1555	0.7	3
0	1556	0.7	1
0	1557	0.7	1
0	1559	0.7	3
0	1560	0.7	5
0	1561	0.7	3
0	1562	0.7	5
0	1563	0.7	8
0	1564	0.7	5
0	1565	0.7	3
0	1566	0.7	5
0	1567	0.7	3
0	1568	0.7	1
0	1569	0.7	1
0	1680	0.75	3
0	1681	0.75	5
0	1682	0.75	3
0	1683	0.75	5
0	1684	0.75	8
0	1685	0.75	5
0	1686	0.75	3
0	1687	0.75	5
0	1688	0.75	3
0	1689	0.75	1
0	1690	0.75	1
0	1779	0.8	3
0	1780	0.8	5
0	1781	0.8	3
0	1782	0.8	5
0	1783	0.8	8
0	1784	0.8	5
0	1785	0.8	3
0	1786	0.8	5
0	1787	0.8	3
0	1788	0.8	1
0	1789	0.8	1
0	1791	0.8	3
0	1792	0.8	5
0	1793	0.8	3
0	1794	0.8	5
0	1795	0.8	8
0	1796	0.8	5
0	1797	0.8	3
0	1798	0.8	5
0	1799	0.8	3
0	1800	0.8	1
0	1801	0.8	1
0	1912	0.85	3
0	1913	0.85	5
0	1914	0.85	3
0	1915	0.85	5
0	1916	0.85	8
0	1917	0.85	5
0	1918	0.85	3
0	1919	0.85	5
0	1920	0.85	3
0	1921	0.85	1
0	1922	0.85	1
0	2011	0.9	3
0	2012	0.9	5
0	2013	0.9	3
0	2014	0.9	5
0	2015	0.9	8
0	2016	0.9	5
0	2017	0.9	3
0	2018	0.9	5
0	2019	0.9	3
0	2020	0.9	1
0	2021	0.9	1
0	2023	0.9	3
0	2024	0.9	5
0	2025	0.9	3
0	2026	0.9	5
0	2027	0.9	8
0	2028	0.9	5
0	2029	0.9	3
0	2030	0.9	5
0	2031	0.9	3
0	2032	0.9	1
0	2033	0.9	1
0	2144	0.95	3
0	2145	0.95	5
0	2146	0.95	3
0	2147	0.95	5
0	2148	0.95	8
0	2149	0.95	5
0	2150	0.95	3
0	2151	0.95	5
0	2152	0.95	3
0	2153	0.95	1
0	2154	0.95	1
0	2243	1	3
0	2244	1	5
0	2245	1	3
0	2246	1	5
0	2247	1	8
0	2248	1	5
0	2249	1	3
0	2250	1	5
0	2251	1	3
0	2252	1	1
0	2253	1	1
0	2255	1	3
0	2256	1	5
0	2257	1	3
0	2258	1	5
0	2259	1	8
0	2260	1	5
0	2261	1	3
0	2262	1	5
0	2263	1	3
0	2264	1	1
0	2265	1	1
0	2376	1.05	3
0	2377	1.05	5
0	2378	1.05	3
0	2379	1.05	5
0	2380	1.05	8
0	2381	1.05	5
0	2382	1.05	3
0	2383	1.05	5
0	2384	1.05	3
0	2385	1.05	1
0	2386	1.05	1
0	2486	1.1	3
0	2487	1.1	5
0	2488	1.1	3
0	2489	1.1	5
0	2490	1.1	8
0	2491	1.1	5
0	2492	1.1	3
0	2493	1.1	5
0	2494	1.1	3
0	2495	1.1	1
0	2496	1.1	1
0	2498	1.1	3
0	2499	1.1	5
0	2500	1.1	3
0	2501	1.1	5
0	2502	1.1	8
0	2503	1.1	5
0	2504	1.1	3
0	2505	1.1	5
0	2506	1.1	3
0	2507	1.1	1
0	2508	1.1	1
0	3062	1.15	3
0	3063	1.15	5
0	3064	1.15	3
0	3065	1.15	5
0	3066	1.15	8
0	3067	1.15	5
0	3068	1.15	3
0	3069	1.15	5
0	3070	1.15	3
0	3071	1.15	1
0	3072	1.15	1
0	3509	1.2	3
0	3510	1.2	5
0	3511	1.2	3
0	3512	1.2	5
0	3513	1.2	8
0	3514	1.2	5
0	3515	1.2	3
0	3516	1.2	5
0	3517	1.2	3
0	3518	1.2	1
0	3519	1.2	1
0	3521	1.2	3
0	3522	1.2	5
0	3523	1.2	3
0	3524	1.2	5
0	3525	1.2	8
0	3526	1.2	5
0	3527	1.2	3
0	3528	1.2	5
0	3529	1.2	3
0	3530	1.2	1
0	3531	1.2	1
0	3726	1.25	3
0	3727	1.25	5
0	3728	1.25	3
0	3729	1.25	5
0	3730	1.25	8
0	3731	1.25	5
0	3732	1.25	3
0	3733	1.25	5
0	3734	1.25	3
0	3735	1.25	1
0	3736	1.25	1
0	3825	1.3	3
0	3826	1.3	5
0	3827	1.3	3
0	3828	1.3	5
0	3829	1.3	8
0	3830	1.3	5
0	3831	1.3	3
0	3832	1.3	5
0	3833	1.3	3
0	3834	1.3	1
0	3835	1.3	1
0	3837	1.3	3
0	3838	1.3	5
0	3839	1.3	3
0	3840	1.3	5
0	3841	1.3	8
0	3842	1.3	5
0	3843	1.3	3
0	3844	1.3	5
0	3845	1.3	3
0	3846	1.3	1
0	3847	1.3	1
0	3958	1.35	3
0	3959	1.35	5
0	3960	1.35	3
0	3961	1.35	5
0	3962	1.35	8
0	3963	1.35	5
0	3964	1.35	3
0	3965	1.35	5
0	3966	1.35	3
0	3967	1.35	1
0	3968	1.35	1
0	4057	1.4	3
0	4058	1.4	5
0	4059	1.4	3
0	4060	1.4	5
0	4061	1.4	8
0	4062	1.4	5
0	4063	1.4	3
0	4064	1.4	5
0	4065	1.4	3
0	4066	1.4	1
0	4067	1.4	1
0	4069	1.4	3
0	4070	1.4	5
0	4071	1.4	3
0	4072	1.4	5
0	4073	1.4	8
0	4074	1.4	5
0	4075	1.4	3
0	4076	1.4	5
0	4077	1.4	3
0	4078	1.4	1
0	4079	1.4	1
0	4190	1.45	3
0	4191	1.45	5
0	4192	1.45	3
0	4193	1.45	5
0	4194	1.45	8
0	4195	1.45	5
0	4196	1.45	3
0	4197	1.45	5
0	4198	1.45	3
0	4199	1.45	1
0	4200	1.45	1
0	4289	1.5	3
0	4290	1.5	5
0	4291	1.5	3
0	4292	1.5	5
0	4293	1.5	8
0	4294	1.5	5
0	4295	1.5	3
0	4296	1.5	5
0	4297	1.5	3
0	4298	1.5	1
0	4299	1.5	1
0	4301	1.5	3
0	4302	1.5	5
0	4303	1.5	3
0	4304	1.5	5
0	4305	1.5	8
0	4306	1.5	5
0	4307	1.5	3
0	4308	1.5	5
0	4309	1.5	3
0	4310	1.5	1
0	4311	1.5	1
0	4422	1.55	3
0	4423	1.55	5
0	4424	1.55	3
0	4425	1.55	5
0	4426	1.55	8
0	4427	1.55	5
0	4428	1.55	3
0	4429	1.55	5
0	4430	1.55	3
0	4431	1.55	1
0	4432	1.55	1
0	4521	1.6	3
0	4522	1.6	5
0	4523	1.6	3
0	4524	1.6	5
0	4525	1.6	8
0	4526	1.6	5
0	4527	1.6	3
0	4528	1.6	5
0	4529	1.6	3
0	4530	1.6	1
0	4531	1.6	1
0	4533	1.6	3
0	4534	1.6	5
0	4535	1.6	3
0	4536	1.6	5
0	4537	1.6	8
0	4538	1.6	5
0	4539	1.6	3
0	4540	1.6	5
0	4541	1.6	3
0	4542	1.6	1
0	4543	1.6	1
0	4654	1.65	3
0	4655	1.65	5
0	4656	1.65	3
0	4657	1.65	5
0	4658	1.65	8
0	4659	1.65	5
0	4660	1.65	3
0	4661	1.65	5
0	4662	1.65	3
0	4663	1.65	1
0	4664	1.65	1
0	5168	1.7	3
0	5169	1.7	5
0	5170	1.7	3
0	5171	1.7	5
0	5172	1.7	8
0	5173	1.7	5
0	5174	1.7	3
0	5175	1.7	5
0	5176	1.7	3
0	5177	1.7	1
0	5178	1.7	1
0	5180	1.7	3
0	5181	1.7	5
0	5182	1.7	3
0	5183	1.7	5
0	5184	1.7	8
0	5185	1.7	5
0	5186	1.7	3
0	5187	1.7	5
0	5188	1.7	3
0	5189	1.7	1
0	5190	1.7	1
0	5571	1.75	3
0	5572	1.75	5
0	5573	1.75	3
0	5574	1.75	5
0	5575	1.75	8
0	5576	1.75	5
0	5577	1.75	3
0	5578	1.75	5
0	5579	1.75	3
0	5580	1.75	1
0	5581	1.75	1
0	5697	1.8	3
0	5698	1.8	5
0	5699	1.8	3
0	5700	1.8	5
0	5701	1.8	8
0	5702	1.8	5
0	5703	1.8	3
0	5704	1.8	5
0	5705	1.8	3
0	5706	1.8	1
0	5707	1.8	1
0	5709	1.8	3
0	5710	1.8	5
0	5711	1.8	3
0	5712	1.8	5
0	5713	1.8	8
0	5714	1.8	5
0	5715	1.8	3
0	5716	1.8	5
0	5717	1.8	3
0	5718	1.8	1
0	5719	1.8	1
0	5863	1.85	3
0	5864	1.85	5
0	5865	1.85	3
0	5866	1.85	5
0	5867	1.85	8
0	5868	1.85	5
0	5869	1.85	3
0	5870	1.85	5
0	5871	1.85	3
0	5872	1.85	1
0	5873	1.85	1
0	5962	1.9	3
0	5963	1.9	5
0	5964	1.9	3
0	5965	1.9	5
0	5966	1.9	8
0	5967	1.9	5
0	5968	1.9	3
0	5969	1.9	5
0	5970	1.9	3
0	5971	1.9	1
0	5972	1.9	1
0	5974	1.9	3
0	5975	1.9	5
0	5976	1.9	3
0	5977	1.9	5
0	5978	1.9	8
0	5979	1.9	5
0	5980	1.9	3
0	5981	1.9	5
0	5982	1.9	3
0	5983	1.9	1
0	5984	1.9	1
0	6095	1.95	3
0	6096	1.95	5
0	6097	1.95	3
0	6098	1.95	5
0	6099	1.95	8
0	6100	1.95	5
0	6101	1.95	3
0	6102	1.95	5
0	6103	1.95	3
0	6104	1.95	1
0	6105	1.95	1
0	6194	2	3
0	6195	2	5
0	6196	2	3
0	6197	2	5
0	6198	2	8
0	6199	2	5
0	6200	2	3
0	6201	2	5
0	6202	2	3
0	6203	2	1
0	6204	2	1
0	6206	2	3
0	6207	2	5
0	6208	2	3
0	6209	2	5
0	6210	2	8
0	6211	2	5
0	6212	2	3
0	6213	2	5
0	6214	2	3
0	6215	2	1
0	6216	2	1
0	6327	2.05	3
0	6328	2.05	5
0	6329	2.05	3
0	6330	2.05	5
0	6331	2.05	8
0	6332	2.05	5
0	6333	2.05	3
0	6334	2.05	5
0	6335	2.05	3
0	6336	2.05	1
0	6337	2.05	1
0	6437	2.1	3
0	6438	2.1	5
0	6439	2.1	3
0	6440	2.1	5
0	6441	2.1	8
0	6442	2.1	5
0	6443	2.1	3
0	6444	2.1	5
0	6445	2.1	3
0	6446	2.1	1
0	6447	2.1	1
0	6449	2.1	3
0	6450	2.1	5
0	6451	2.1	3
0	6452	2.1	5
0	6453	2.1	8
0	6454	2.1	5
0	6455	2.1	3
0	6456	2.1	5
0	6457	2.1	3
0	6458	2.1	1
0	6459	2.1	1
0	6581	2.15	3
0	6582	2.15	5
0	6583	2.15	3
0	6584	2.15	5
0	6585	2.15	8
0	6586	2.15	5
0	6587	2.15	3
0	6588	2.15	5
0	6589	2.15	3
0	6590	2.15	1
0	6591	2.15	1
0	6680	2.2	3
0	6681	2.2	5
0	6682	2.2	3
0	6683	2.2	5
0	6684	2.2	8
0	6685	2.2	5
0	6686	2.2	3
0	6687	2.2	5
0	6688	2.2	3
0	6689	2.2	1
0	6690	2.2	1
0	6692	2.2	3
0	6693	2.2	5
0	6694	2.2	3
0	6695	2.2	5
0	6696	2.2	8
0	6697	2.2	5
0	6698	2.2	3
0	6699	2.2	5
0	6700	2.2	3
0	6701	2.2	1
0	6702	2.2	1
0	7250	2.25	3
0	7251	2.25	5
0	7252	2.25	3
0	7253	2.25	5
0	7254	2.25	8
0	7255	2.25	5
0	7256	2.25	3
0	7257	2.25	5
0	7258	2.25	3
0	7259	2.25	1
0	7260	2.25	1
0	7544	2.3	3
0	7545	2.3	5
0	7546	2.3	3
0	7547	2.3	5
0	7548	2.3	8
0	7549	2.3	5
0	7550	2.3	3
0	7551	2.3	5
0	7552	2.3	3
0	7553	2.3	1
0	7554	2.3	1
0	7556	2.3	3
0	7557	2.3	5
0	7558	2.3	3
0	7559	2.3	5
0	7560	2.3	8
0	7561	2.3	5
0	7562	2.3	3
0	7563	2.3	5
0	7564	2.3	3
0	7565	2.3	1
0	7566	2.3	1
0	7677	2.35	3
0	7678	2.35	5
0	7679	2.35	3
0	7680	2.35	5
0	7681	2.35	8
0	7682	2.35	5
0	7683	2.35	3
0	7684	2.35	5
0	7685	2.35	3
0	7686	2.35	1
0	7687	2.35	1
0	7873	2.4	3
0	7874	2.4	5
0	7875	2.4	3
0	7876	2.4	5
0	7877	2.4	8
0	7878	2.4	5
0	7879	2.4	3
0	7880	2.4	5
0	7881	2.4	3
0	7882	2.4	1
0	7883	2.4	1
0	7885	2.4	3
0	7886	2.4	5
0	7887	2.4	3
0	7888	2.4	5
0	7889	2.4	8
0	7890	2.4	5
0	7891	2.4	3
0	7892	2.4	5
0	7893	2.4	3
0	7894	2.4	1
0	7895	2.4	1
0	8029	2.45	3
0	8030	2.45	5
0	8031	2.45	3
0	8032	2.45	5
0	8033	2.45	8
0	8034	2.45	5
0	8035	2.45	3
0	8036	2.45	5
0	8037	2.45	3
0	8038	2.45	1
0	8039	2.45	1
0	8128	2.5	3
0	8129	2.5	5
0	8130	2.5	3
0	8131	2.5	5
0	8132	2.5	8
0	8133	2.5	5
0	8134	2.5	3
0	8135	2.5	5
0	8136	2.5	3
0	8137	2.5	1
0	8138	2.5	1
0	8140	2.5	3
0	8141	2.5	5
0	8142	2.5	3
0	8143	2.5	5
0	8144	2.5	8
0	8145	2.5	5
0	8146	2.5	3
0	8147	2.5	5
0	8148	2.5	3
0	8149	2.5	1
0	8150	2.5	1
0	8261	2.55	3
0	8262	2.55	5
0	8263	2.55	3
0	8264	2.55	5
0	8265	2.55	8
0	8266	2.55	5
0	8267	2.55	3
0	8268	2.55	5
0	8269	2.55	3
0	8270	2.55	1
0	8271	2.55	1
0	8360	2.6	3
0	8361	2.6	5
0	8362	2.6	3
0	8363	2.6	5
0	8364	2.6	8
0	8365	2.6	5
0	8366	2.6	3
0	8367	2.6	5
0	8368	2.6	3
0	8369	2.6	1
0	8370	2.6	1
0	8372	2.6	3
0	8373	2.6	5
0	8374	2.6	3
0	8375	2.6	5
0	8376	2.6	8
0	8377	2.6	5
0	8378	2.6	3
0	8379	2.6	5
0	8380	2.6	3
0	8381	2.6	1
0	8382	2.6	1
0	8493	2.65	3
0	8494	2.65	5
0	8495	2.65	3
0	8496	2.65	5
0	8497	2.65	8
0	8498	2.65	5
0	8499	2.65	3
0	8500	2.65	5
0	8501	2.65	3
0	8502	2.65	1
0	8503	2.65	1
0	8592	2.7	3
0	8593	2.7	5
0	8594	2.7	3
0	8595	2.7	5
0	8596	2.7	8
0	8597	2.7	5
0	8598	2.7	3
0	8599	2.7	5
0	8600	2.7	3
0	8601	2.7	1
0	8602	2.7	1
0	8604	2.7	3
0	8605	2.7	5
0	8606	2.7	3
0	8607	2.7	5
0	8608	2.7	8
0	8609	2.7	5
0	8610	2.7	3
0	8611	2.7	5
0	8612	2.7	3
0	8613	2.7	1
0	8614	2.7	1
0	8748	2.75	3
0	8749	2.75	5
0	8750	2.75	3
0	8751	2.75	5
0	8752	2.75	8
0	8753	2.75	5
0	8754	2.75	3
0	8755	2.75	5
0	8756	2.75	3
0	8757	2.75	1
0	8758	2.75	1
0	9270	2.8	3
0	9271	2.8	5
0	9272	2.8	3
0	9273	2.8	5
0	9274	2.8	8
0	9275	2.8	5
0	9276	2.8	3
0	9277	2.8	5
0	9278	2.8	3
0	9279	2.8	1
0	9280	2.8	1
0	9282	2.8	3
0	9283	2.8	5
0	9284	2.8	3
0	9285	2.8	5
0	9286	2.8	8
0	9287	2.8	5
0	9288	2.8	3
0	9289	2.8	5
0	9290	2.8	3
0	9291	2.8	1
0	9292	2.8	1
0	9577	2.85	3
0	9578	2.85	5
0	9579	2.85	3
0	9580	2.85	5
0	9581	2.85	8
0	9582	2.85	5
0	9583	2.85	3
0	9584	2.85	5
0	9585	2.85	3
0	9586	2.85	1
0	9587	2.85	1
0	9699	2.9	3
0	9700	2.9	5
0	9701	2.9	3
0	9702	2.9	5
0	9703	2.9	8
0	9704	2.9	5
0	9705	2.9	3
0	9706	2.9	5
0	9707	2.9	3
0	9708	2.9	1
0	9709	2.9	1
0	9711	2.9	3
0	9712	2.9	5
0	9713	2.9	3
0	9714	2.9	5
0	9715	2.9	8
0	9716	2.9	5
0	9717	2.9	3
0	9718	2.9	5
0	9719	2.9	3
0	9720	2.9	1
0	9721	2.9	1
0	9883	2.95	3
0	9884	2.95	5
0	9885	2.95	3
0	9886	2.95	5
0	9887	2.95	8
0	9888	2.95	5
0	9889	2.95	3
0	9890	2.95	5
0	9891	2.95	3
0	9892	2.95	1
0	9893	2.95	1
0	9987	3	3
0	9988	3	5
0	9989	3	3
0	9990	3	5
0	9991	3	8
0	9992	3	5
0	9993	3	3
0	9994	3	5
0	9995	3	3
0	9996	3	1
0	9997	3	1
0	9999	3	3
0	10000	3	5
0	10001	3	3
0	10002	3	5
0	10003	3	8
0	10004	3	5
0	10005	3	3
0	10006	3	5
0	10007	3	3
0	10008	3	1
0	10009	3	1
0	10120	3.05	3
0	10121	3.05	5
0	10122	3.05	3
0	10123	3.05	5
0	10124	3.05	8
0	10125	3.05	5
0	10126	3.05	3
0	10127	3.05	5
0	10128	3.05	3
0	10129	3.05	1
0	10130	3.05	1
0	10230	3.1	3
0	10231	3.1	5
0	10232	3.1	3
0	10233	3.1	5
0	10234	3.1	8
0	10235	3.1	5
0	10236	3.1	3
0	10237	3.1	5
0	10238	3.1	3
0	10239	3.1	1
0	10240	3.1	1
0	10242	3.1	3
0	10243	3.1	5
0	10244	3.1	3
0	10245	3.1	5
0	10246	3.1	8
0	10247	3.1	5
0	10248	3.1	3
0	10249	3.1	5
0	10250	3.1	3
0	10251	3.1	1
0	10252	3.1	1
0	10374	3.15	3
0	10375	3.15	5
0	10376	3.15	3
0	10377	3.15	5
0	10378	3.15	8
0	10379	3.15	5
0	10380	3.15	3
0	10381	3.15	5
0	10382	3.15	3
0	10383	3.15	1
0	10384	3.15	1
0	10473	3.2	3
0	10474	3.2	5
0	10475	3.2	3
0	10476	3.2	5
0	10477	3.2	8
0	10478	3.2	5
0	10479	3.2	3
0	10480	3.2	5
0	10481	3.2	3
0	10482	3.2	1
0	10483	3.2	1
0	10485	3.2	3
0	10486	3.2	5
0	10487	3.2	3
0	10488	3.2	5
0	10489	3.2	8
0	10490	3.2	5
0	10491	3.2	3
0	10492	3.2	5
0	10493	3.2	3
0	10494	3.2	1
0	10495	3.2	1
0	10606	3.25	3
0	10607	3.25	5
0	10608	3.25	3
0	10609	3.25	5
0	10610	3.25	8
0	10611	3.25	5
0	10612	3.25	3
0	10613	3.25	5
0	10614	3.25	3
0	10615	3.25	1
0	10616	3.25	1
0	10790	3.3	3
0	10791	3.3	5
0	10792	3.3	3
0	10793	3.3	5
0	10794	3.3	8
0	10795	3.3	5
0	10796	3.3	3
0	10797	3.3	5
0	10798	3.3	3
0	10799	3.3	1
0	10800	3.3	1
0	10802	3.3	3
0	10803	3.3	5
0	10804	3.3	3
0	10805	3.3	5
0	10806	3.3	8
0	10807	3.3	5
0	10808	3.3	3
0	10809	3.3	5
0	10810	3.3	3
0	10811	3.3	1
0	10812	3.3	1
0	11358	3.35	3
0	11359	3.35	5
0	11360	3.35	3
0	11361	3.35	5
0	11362	3.35	8
0	11363	3.35	5
0	11364	3.35	3
0	11365	3.35	5
0	11366	3.35	3
0	11367	3.35	1
0	11368	3.35	1
0	11550	3.4	3
0	11551	3.4	5
0	11552	3.4	3
0	11553	3.4	5
0	11554	3.4	8
0	11555	3.4	5
0	11556	3.4	3
0	11557	3.4	5
0	11558	3.4	3
0	11559	3.4	1
0	11560	3.4	1
0	11562	3.4	3
0	11563	3.4	5
0	11564	3.4	3
0	11565	3.4	5
0	11566	3.4	8
0	11567	3.4	5
0	11568	3.4	3
0	11569	3.4	5
0	11570	3.4	3
0	11571	3.4	1
0	11572	3.4	1
0	11710	3.45	3
0	11711	3.45	5
0	11712	3.45	3
0	11713	3.45	5
0	11714	3.45	8
0	11715	3.45	5
0	11716	3.45	3
0	11717	3.45	5
0	11718	3.45	3
0	11719	3.45	1
0	11720	3.45	1
0	11855	3.5	3
0	11856	3.5	5
0	11857	3.5	3
0	11858	3.5	5
0	11859	3.5	8
0	11860	3.5	5
0	11861	3.5	3
0	11862	3.5	5
0	11863	3.5	3
0	11864	3.5	1
0	11865	3.5	1
0	11867	3.5	3
0	11868	3.5	5
0	11869	3.5	3
0	11870	3.5	5
0	11871	3.5	8
0	11872	3.5	5
0	11873	3.5	3
0	11874	3.5	5
0	11875	3.5	3
0	11876	3.5	1
0	11877	3.5	1
0	11988	3.55	3
0	11989	3.55	5
0	11990	3.55	3
0	11991	3.55	5
0	11992	3.55	8
0	11993	3.55	5
0	11994	3.55	3
0	11995	3.55	5
0	11996	3.55	3
0	11997	3.55	1
0	11998	3.55	1
0	12087	3.6	3
0	12088	3.6	5
0	12089	3.6	3
0	12090	3.6	5
0	12091	3.6	8
0	12092	3.6	5
0	12093	3.6	3
0	12094	3.6	5
0	12095	3.6	3
0	12096	3.6	1
0	12097	3.6	1
0	12099	3.6	3
0	12100	3.6	5
0	12101	3.6	3
0	12102	3.6	5
0	12103	3.6	8
0	12104	3.6	5
0	12105	3.6	3
0	12106	3.6	5
0	12107	3.6	3
0	12108	3.6	1
0	12109	3.6	1
0	12220	3.65	3
0	12221	3.65	5
0	12222	3.65	3
0	12223	3.65	5
0	12224	3.65	8
0	12225	3.65	5
0	12226	3.65	3
0	12227	3.65	5
0	12228	3.65	3
0	12229	3.65	1
0	12230	3.65	1
0	12319	3.7	3
0	12320	3.7	5
0	12321	3.7	3
0	12322	3.7	5
0	12323	3.7	8
0	12324	3.7	5
0	12325	3.7	3
0	12326	3.7	5
0	12327	3.7	3
0	12328	3.7	1
0	12329	3.7	1
0	12331	3.7	3
0	12332	3.7	5
0	12333	3.7	3
0	12334	3.7	5
0	12335	3.7	8
0	12336	3.7	5
0	12337	3.7	3
0	12338	3.7	5
0	12339	3.7	3
0	12340	3.7	1
0	12341	3.7	1
0	12452	3.75	3
0	12453	3.75	5
0	12454	3.75	3
0	12455	3.75	5
0	12456	3.75	8
0	12457	3.75	5
0	12458	3.75	3
0	12459	3.75	5
0	12460	3.75	3
0	12461	3.75	1
0	12462	3.75	1
0	12551	3.8	3
0	12552	3.8	5
0	12553	3.8	3
0	12554	3.8	5
0	12555	3.8	8
0	12556	3.8	5
0	12557	3.8	3
0	12558	3.8	5
0	12559	3.8	3
0	12560	3.8	1
0	12561	3.8	1
0	12563	3.8	3
0	12564	3.8	5
0	12565	3.8	3
0	12566	3.8	5
0	12567	3.8	8
0	12568	3.8	5
0	12569	3.8	3
0	12570	3.8	5
0	12571	3.8	3
0	12572	3.8	1
0	12573	3.8	1
0	12734	3.85	3
0	12735	3.85	5
0	12736	3.85	3
0	12737	3.85	5
0	12738	3.85	8
0	12739	3.85	5
0	12740	3.85	3
0	12741	3.85	5
0	12742	3.85	3
0	12743	3.85	1
0	12744	3.85	1
0	13248	3.9	3
0	13249	3.9	5
0	13250	3.9	3
0	13251	3.9	5
0	13252	3.9	8
0	13253	3.9	5
0	13254	3.9	3
0	13255	3.9	5
0	13256	3.9	3
0	13257	3.9	1
0	13258	3.9	1
0	13260	3.9	3
0	13261	3.9	5
0	13262	3.9	3
0	13263	3.9	5
0	13264	3.9	8
0	13265	3.9	5
0	13266	3.9	3
0	13267	3.9	5
0	13268	3.9	3
0	13269	3.9	1
0	13270	3.9	1
0	13453	3.95	3
0	13454	3.95	5
0	13455	3.95	3
0	13456	3.95	5
0	13457	3.95	8
0	13458	3.95	5
0	13459	3.95	3
0	13460	3.95	5
0	13461	3.95	3
0	13462	3.95	1
0	13463	3.95	1
0	13592	4	3
0	13593	4	5
0	13594	4	3
0	13595	4	5
0	13596	4	8
0	13597	4	5
0	13598	4	3
0	13599	4	5
0	13600	4	3
0	13601	4	1
0	13602	4	1
0	13604	4	3
0	13605	4	5
0	13606	4	3
0	13607	4	5
0	13608	4	8
0	13609	4	5
0	13610	4	3
0	13611	4	5
0	13612	4	3
0	13613	4	1
0	13614	4	1
0	13776	4.05	3
0	13777	4.05	5
0	13778	4.05	3
0	13779	4.05	5
0	13780	4.05	8
0	13781	4.05	5
0	13782	4.05	3
0	13783	4.05	5
0	13784	4.05	3
0	13785	4.05	1
0	13786	4.05	1
0	13886	4.1	3
0	13887	4.1	5
0	13888	4.1	3
0	13889	4.1	5
0	13890	4.1	8
0	13891	4.1	5
0	13892	4.1	3
0	13893	4.1	5
0	13894	4.1	3
0	13895	4.1	1
0	13896	4.1	1
0	13898	4.1	3
0	13899	4.1	5
0	13900	4.1	3
0	13901	4.1	5
0	13902	4.1	8
0	13903	4.1	5
0	13904	4.1	3
0	13905	4.1	5
0	13906	4.1	3
0	13907	4.1	1
0	13908	4.1	1
0	14053	4.15	3
0	14054	4.15	5
0	14055	4.15	3
0	14056	4.15	5
0	14057	4.15	8
0	14058	4.15	5
0	14059	4.15	3
0	14060	4.15	5
0	14061	4.15	3
0	14062	4.15	1
0	14063	4.15	1
0	14152	4.2	3
0	14153	4.2	5
0	14154	4.2	3
0	14155	4.2	5
0	14156	4.2	8
0	14157	4.2	5
0	14158	4.2	3
0	14159	4.2	5
0	14160	4.2	3
0	14161	4.2	1
0	14162	4.2	1
0	14164	4.2	3
0	14165	4.2	5
0	14166	4.2	3
0	14167	4.2	5
0	14168	4.2	8
0	14169	4.2	5
0	14170	4.2	3
0	14171	4.2	5
0	14172	4.2	3
0	14173	4.2	1
0	14174	4.2	1
0	14285	4.25	3
0	14286	4.25	5
0	14287	4.25	3
0	14288	4.25	5
0	14289	4.25	8
0	14290	4.25	5
0	14291	4.25	3
0	14292	4.25	5
0	14293	4.25	3
0	14294	4.25	1
0	14295	4.25	1
0	14384	4.3	3
0	14385	4.3	5
0	14386	4.3	3
0	14387	4.3	5
0	14388	4.3	8
0	14389	4.3	5
0	14390	4.3	3
0	14391	4.3	5
0	14392	4.3	3
0	14393	4.3	1
0	14394	4.3	1
0	14396	4.3	3
0	14397	4.3	5
0	14398	4.3	3
0	14399	4.3	5
0	14400	4.3	8
0	14401	4.3	5
0	14402	4.3	3
0	14403	4.3	5
0	14404	4.3	3
0	14405	4.3	1
0	14406	4.3	1
0	14517	4.35	3
0	14518	4.35	5
0	14519	4.35	3
0	14520	4.35	5
0	14521	4.35	8
0	14522	4.35	5
0	14523	4.35	3
0	14524	4.35	5
0	14525	4.35	3
0	14526	4.35	1
0	14527	4.35	1
0	14701	4.4	3
0	14702	4.4	5
0	14703	4.4	3
0	14704	4.4	5
0	14705	4.4	8
0	14706	4.4	5
0	14707	4.4	3
0	14708	4.4	5
0	14709	4.4	3
0	14710	4.4	1
0	14711	4.4	1
0	14713	4.4	3
0	14714	4.4	5
0	14715	4.4	3
0	14716	4.4	5
0	14717	4.4	8
0	14718	4.4	5
0	14719	4.4	3
0	14720	4.4	5
0	14721	4.4	3
0	14722	4.4	1
0	14723	4.4	1
0	15237	4.45	3
0	15238	4.45	5
0	15239	4.45	3
0	15240	4.45	5
0	15241	4.45	8
0	15242	4.45	5
0	15243	4.45	3
0	15244	4.45	5
0	15245	4.45	3
0	15246	4.45	1
0	15247	4.45	1
0	15415	4.5	3
0	15416	4.5	5
0	15417	4.5	3
0	15418	4.5	5
0	15419	4.5	8
0	15420	4.5	5
0	15421	4.5	3
0	15422	4.5	5
0	15423	4.5	3
0	15424	4.5	1
0	15425	4.5	1
0	15427	4.5	3
0	15428	4.5	5
0	15429	4.5	3
0	15430	4.5	5
0	15431	4.5	8
0	15432	4.5	5
0	15433	4.5	3
0	15434	4.5	5
0	15435	4.5	3
0	15436	4.5	1
0	15437	4.5	1
0	15570	4.55	3
0	15571	4.55	5
0	15572	4.55	3
0	15573	4.55	5
0	15574	4.55	8
0	15575	4.55	5
0	15576	4.55	3
0	15577	4.55	5
0	15578	4.55	3
0	15579	4.55	1
0	15580	4.55	1
0	15761	4.6	3
0	15762	4.6	5
0	15763	4.6	3
0	15764	4.6	5
0	15765	4.6	8
0	15766	4.6	5
0	15767	4.6	3
0	15768	4.6	5
0	15769	4.6	3
0	15770	4.6	1
0	15771	4.6	1
0	15773	4.6	3
0	15774	4.6	5
0	15775	4.6	3
0	15776	4.6	5
0	15777	4.6	8
0	15778	4.6	5
0	15779	4.6	3
0	15780	4.6	5
0	15781	4.6	3
0	15782	4.6	1
0	15783	4.6	1
0	15894	4.65	3
0	15895	4.65	5
0	15896	4.65	3
0	15897	4.65	5
0	15898	4.65	8
0	15899	4.65	5
0	15900	4.65	3
0	15901	4.65	5
0	15902	4.65	3
0	15903	4.65	1
0	15904	4.65	1
0	16016	4.7	3
0	16017	4.7	5
0	16018	4.7	3
0	16019	4.7	5
0	16020	4.7	8
0	16021	4.7	5
0	16022	4.7	3
0	16023	4.7	5
0	16024	4.7	3
0	16025	4.7	1
0	16026	4.7	1
0	16028	4.7	3
0	16029	4.7	5
0	16030	4.7	3
0	16031	4.7	5
0	16032	4.7	8
0	16033	4.7	5
0	16034	4.7	3
0	16035	4.7	5
0	16036	4.7	3
0	16037	4.7	1
0	16038	4.7	1
0	16149	4.75	3
0	16150	4.75	5
0	16151	4.75	3
0	16152	4.75	5
0	16153	4.75	8
0	16154	4.75	5
0	16155	4.75	3
0	16156	4.75	5
0	16157	4.75	3
0	16158	4.75	1
0	16159	4.75	1
0	16248	4.8	3
0	16249	4.8	5
0	16250	4.8	3
0	16251	4.8	5
0	16252	4.8	8
0	16253	4.8	5
0	16254	4.8	3
0	16255	4.8	5
0	16256	4.8	3
0	16257	4.8	1
0	16258	4.8	1
0	16260	4.8	3
0	16261	4.8	5
0	16262	4.8	3
0	16263	4.8	5
0	16264	4.8	8
0	16265	4.8	5
0	16266	4.8	3
0	16267	4.8	5
0	16268	4.8	3
0	16269	4.8	1
0	16270	4.8	1
0	16381	4.85	3
0	16382	4.85	5
0	16383	4.85	3
0	16384	4.85	5
0	16385	4.85	8
0	16386	4.85	5
0	16387	4.85	3
0	16388	4.85	5
0	16389	4.85	3
0	16390	4.85	1
0	16391	4.85	1
0	16526	4.9	3
0	16527	4.9	5
0	16528	4.9	3
0	16529	4.9	5
0	16530	4.9	8
0	16531	4.9	5
0	16532	4.9	3
0	16533	4.9	5
0	16534	4.9	3
0	16535	4.9	1
0	16536	4.9	1
0	16538	4.9	3
0	16539	4.9	5
0	16540	4.9	3
0	16541	4.9	5
0	16542	4.9	8
0	16543	4.9	5
0	16544	4.9	3
0	16545	4.9	5
0	16546	4.9	3
0	16547	4.9	1
0	16548	4.9	1
0	16715	4.95	3
0	16716	4.95	5
0	16717	4.95	3
0	16718	4.95	5
0	16719	4.95	8
0	16720	4.95	5
0	16721	4.95	3
0	16722	4.95	5
0	16723	4.95	3
0	16724	4.95	1
0	16725	4.95	1
0	17206	5	3
0	17207	5	5
0	17208	5	3
0	17209	5	5
0	17210	5	8
0	17211	5	5
0	17212	5	3
0	17213	5	5
0	17214	5	3
0	17215	5	1
0	17216	5	1
0	17218	5	3
0	17219	5	5
0	17220	5	3
0	17221	5	5
0	17222	5	8
0	17223	5	5
0	17224	5	3
0	17225	5	5
0	17226	5	3
0	17227	5	1
0	17228	5	1
0	17462	5.05	3
0	17463	5.05	5
0	17464	5.05	3
0	17465	5.05	5
0	17466	5.05	8
0	17467	5.05	5
0	17468	5.05	3
0	17469	5.05	5
0	17470	5.05	3
0	17471	5.05	1
0	17472	5.05	1
0	17577	5.1	3
0	17578	5.1	5
0	17579	5.1	3
0	17580	5.1	5
0	17581	5.1	8
0	17582	5.1	5
0	17583	5.1	3
0	17584	5.1	5
0	17585	5.1	3
0	17586	5.1	1
0	17587	5.1	1
0	17589	5.1	3
0	17590	5.1	5
0	17591	5.1	3
0	17592	5.1	5
0	17593	5.1	8
0	17594	5.1	5
0	17595	5.1	3
0	17596	5.1	5
0	17597	5.1	3
0	17598	5.1	1
0	17599	5.1	1
0	17790	5.15	3
0	17791	5.15	5
0	17792	5.15	3
0	17793	5.15	5
0	17794	5.15	8
0	17795	5.15	5
0	17796	5.15	3
0	17797	5.15	5
0	17798	5.15	3
0	17799	5.15	1
0	17800	5.15	1
0	17912	5.2	3
0	17913	5.2	5
0	17914	5.2	3
0	17915	5.2	5
0	17916	5.2	8
0	17917	5.2	5
0	17918	5.2	3
0	17919	5.2	5
0	17920	5.2	3
0	17921	5.2	1
0	17922	5.2	1
0	17924	5.2	3
0	17925	5.2	5
0	17926	5.2	3
0	17927	5.2	5
0	17928	5.2	8
0	17929	5.2	5
0	17930	5.2	3
0	17931	5.2	5
0	17932	5.2	3
0	17933	5.2	1
0	17934	5.2	1
0	18068	5.25	3
0	18069	5.25	5
0	18070	5.25	3
0	18071	5.25	5
0	18072	5.25	8
0	18073	5.25	5
0	18074	5.25	3
0	18075	5.25	5
0	18076	5.25	3
0	18077	5.25	1
0	18078	5.25	1
0	18167	5.3	3
0	18168	5.3	5
0	18169	5.3	3
0	18170	5.3	5
0	18171	5.3	8
0	18172	5.3	5
0	18173	5.3	3
0	18174	5.3	5
0	18175	5.3	3
0	18176	5.3	1
0	18177	5.3	1
0	18179	5.3	3
0	18180	5.3	5
0	18181	5.3	3
0	18182	5.3	5
0	18183	5.3	8
0	18184	5.3	5
0	18185	5.3	3
0	18186	5.3	5
0	18187	5.3	3
0	18188	5.3	1
0	18189	5.3	1
0	18300	5.35	3
0	18301	5.35	5
0	18302	5.35	3
0	18303	5.35	5
0	18304	5.35	8
0	18305	5.35	5
0	18306	5.35	3
0	18307	5.35	5
0	18308	5.35	3
0	18309	5.35	1
0	18310	5.35	1
0	18399	5.4	3
0	18400	5.4	5
0	18401	5.4	3
0	18402	5.4	5
0	18403	5.4	8
0	18404	5.4	5
0	18405	5.4	3
0	18406	5.4	5
0	18407	5.4	3
0	18408	5.4	1
0	18409	5.4	1
0	18411	5.4	3
0	18412	5.4	5
0	18413	5.4	3
0	18414	5.4	5
0	18415	5.4	8
0	18416	5.4	5
0	18417	5.4	3
0	18418	5.4	5
0	18419	5.4	3
0	18420	5.4	1
0	18421	5.4	1
0	18595	5.45	3
0	18596	5.45	5
0	18597	5.45	3
0	18598	5.45	5
0	18599	5.45	8
0	18600	5.45	5
0	18601	5.45	3
0	18602	5.45	5
0	18603	5.45	3
0	18604	5.45	1
0	18605	5.45	1
0	18722	5.5	3
0	18723	5.5	5
0	18724	5.5	3
0	18725	5.5	5
0	18726	5.5	8
0	18727	5.5	5
0	18728	5.5	3
0	18729	5.5	5
0	18730	5.5	3
0	18731	5.5	1
0	18732	5.5	1
0	18734	5.5	3
0	18735	5.5	5
0	18736	5.5	3
0	18737	5.5	5
0	18738	5.5	8
0	18739	5.5	5
0	18740	5.5	3
0	18741	5.5	5
0	18742	5.5	3
0	18743	5.5	1
0	18744	5.5	1
0	19256	5.55	3
0	19257	5.55	5
0	19258	5.55	3
0	19259	5.55	5
0	19260	5.55	8
0	19261	5.55	5
0	19262	5.55	3
0	19263	5.55	5
0	19264	5.55	3
0	19265	5.55	1
0	19266	5.55	1
0	19477	5.6	3
0	19478	5.6	5
0	19479	5.6	3
0	19480	5.6	5
0	19481	5.6	8
0	19482	5.6	5
0	19483	5.6	3
0	19484	5.6	5
0	19485	5.6	3
0	19486	5.6	1
0	19487	5.6	1
0	19489	5.6	3
0	19490	5.6	5
0	19491	5.6	3
0	19492	5.6	5
0	19493	5.6	8
0	19494	5.6	5
0	19495	5.6	3
0	19496	5.6	5
0	19497	5.6	3
0	19498	5.6	1
0	19499	5.6	1
0	19656	5.65	3
0	19657	5.65	5
0	19658	5.65	3
0	19659	5.65	5
0	19660	5.65	8
0	19661	5.65	5
0	19662	5.65	3
0	19663	5.65	5
0	19664	5.65	3
0	19665	5.65	1
0	19666	5.65	1
0	19847	5.7	3
0	19848	5.7	5
0	19849	5.7	3
0	19850	5.7	5
0	19851	5.7	8
0	19852	5.7	5
0	19853	5.7	3
0	19854	5.7	5
0	19855	5.7	3
0	19856	5.7	1
0	19857	5.7	1
0	19859	5.7	3
0	19860	5.7	5
0	19861	5.7	3
0	19862	5.7	5
0	19863	5.7	8
0	19864	5.7	5
0	19865	5.7	3
0	19866	5.7	5
0	19867	5.7	3
0	19868	5.7	1
0	19869	5.7	1
0	20003	5.75	3
0	20004	5.75	5
0	20005	5.75	3
0	20006	5.75	5
0	20007	5.75	8
0	20008	5.75	5
0	20009	5.75	3
0	20010	5.75	5
0	20011	5.75	3
0	20012	5.75	1
0	20013	5.75	1
0	20125	5.8	3
0	20126	5.8	5
0	20127	5.8	3
0	20128	5.8	5
0	20129	5.8	8
0	20130	5.8	5
0	20131	5.8	3
0	20132	5.8	5
0	20133	5.8	3
0	20134	5.8	1
0	20135	5.8	1
0	20137	5.8	3
0	20138	5.8	5
0	20139	5.8	3
0	20140	5.8	5
0	20141	5.8	8
0	20142	5.8	5
0	20143	5.8	3
0	20144	5.8	5
0	20145	5.8	3
0	20146	5.8	1
0	20147	5.8	1
0	20258	5.85	3
0	20259	5.85	5
0	20260	5.85	3
0	20261	5.85	5
0	20262	5.85	8
0	20263	5.85	5
0	20264	5.85	3
0	20265	5.85	5
0	20266	5.85	3
0	20267	5.85	1
0	20268	5.85	1
0	20357	5.9	3
0	20358	5.9	5
0	20359	5.9	3
0	20360	5.9	5
0	20361	5.9	8
0	20362	5.9	5
0	20363	5.9	3
0	20364	5.9	5
0	20365	5.9	3
0	20366	5.9	1
0	20367	5.9	1
0	20369	5.9	3
0	20370	5.9	5
0	20371	5.9	3
0	20372	5.9	5
0	20373	5.9	8
0	20374	5.9	5
0	20375	5.9	3
0	20376	5.9	5
0	20377	5.9	3
0	20378	5.9	1
0	20379	5.9	1
0	20490	5.95	3
0	20491	5.95	5
0	20492	5.95	3
0	20493	5.95	5
0	20494	5.95	8
0	20495	5.95	5
0	20496	5.95	3
0	20497	5.95	5
0	20498	5.95	3
0	20499	5.95	1
0	20500	5.95	1
0	20668	6	3
0	20669	6	5
0	20670	6	3
0	20671	6	5
0	20672	6	8
0	20673	6	5
0	20674	6	3
0	20675	6	5
0	20676	6	3
0	20677	6	1
0	20678	6	1
0	20680	6	3
0	20681	6	5
0	20682	6	3
0	20683	6	5
0	20684	6	8
0	20685	6	5
0	20686	6	3
0	20687	6	5
0	20688	6	3
0	20689	6	1
0	20690	6	1
0	20823	6.05	3
0	20824	6.05	5
0	20825	6.05	3
0	20826	6.05	5
0	20827	6.05	8
0	20828	6.05	5
0	20829	6.05	3
0	20830	6.05	5
0	20831	6.05	3
0	20832	6.05	1
0	20833	6.05	1
0	21322	6.1	3
0	21323	6.1	5
0	21324	6.1	3
0	21325	6.1	5
0	21326	6.1	8
0	21327	6.1	5
0	21328	6.1	3
0	21329	6.1	5
0	21330	6.1	3
0	21331	6.1	1
0	21332	6.1	1
0	21334	6.1	3
0	21335	6.1	5
0	21336	6.1	3
0	21337	6.1	5
0	21338	6.1	8
0	21339	6.1	5
0	21340	6.1	3
0	21341	6.1	5
0	21342	6.1	3
0	21343	6.1	1
0	21344	6.1	1
0	21568	6.15	3
0	21569	6.15	5
0	21570	6.15	3
0	21571	6.15	5
0	21572	6.15	8
0	21573	6.15	5
0	21574	6.15	3
0	21575	6.15	5
0	21576	6.15	3
0	21577	6.15	1
0	21578	6.15	1
0	21720	6.2	3
0	21721	6.2	5
0	21722	6.2	3
0	21723	6.2	5
0	21724	6.2	8
0	21725	6.2	5
0	21726	6.2	3
0	21727	6.2	5
0	21728	6.2	3
0	21729	6.2	1
0	21730	6.2	1
0	21732	6.2	3
0	21733	6.2	5
0	21734	6.2	3
0	21735	6.2	5
0	21736	6.2	8
0	21737	6.2	5
0	21738	6.2	3
0	21739	6.2	5
0	21740	6.2	3
0	21741	6.2	1
0	21742	6.2	1
0	21927	6.25	3
0	21928	6.25	5
0	21929	6.25	3
0	21930	6.25	5
0	21931	6.25	8
0	21932	6.25	5
0	21933	6.25	3
0	21934	6.25	5
0	21935	6.25	3
0	21936	6.25	1
0	21937	6.25	1
0	22072	6.3	3
0	22073	6.3	5
0	22074	6.3	3
0	22075	6.3	5
0	22076	6.3	8
0	22077	6.3	5
0	22078	6.3	3
0	22079	6.3	5
0	22080	6.3	3
0	22081	6.3	1
0	22082	6.3	1
0	22084	6.3	3
0	22085	6.3	5
0	22086	6.3	3
0	22087	6.3	5
0	22088	6.3	8
0	22089	6.3	5
0	22090	6.3	3
0	22091	6.3	5
0	22092	6.3	3
0	22093	6.3	1
0	22094	6.3	1
0	22228	6.35	3
0	22229	6.35	5
0	22230	6.35	3
0	22231	6.35	5
0	22232	6.35	8
0	22233	6.35	5
0	22234	6.35	3
0	22235	6.35	5
0	22236	6.35	3
0	22237	6.35	1
0	22238	6.35	1
0	22327	6.4	3
0	22328	6.4	5
0	22329	6.4	3
0	22330	6.4	5
0	22331	6.4	8
0	22332	6.4	5
0	22333	6.4	3
0	22334	6.4	5
0	22335	6.4	3
0	22336	6.4	1
0	22337	6.4	1
0	22339	6.4	3
0	22340	6.4	5
0	22341	6.4	3
0	22342	6.4	5
0	22343	6.4	8
0	22344	6.4	5
0	22345	6.4	3
0	22346	6.4	5
0	22347	6.4	3
0	22348	6.4	1
0	22349	6.4	1
0	22460	6.45	3
0	22461	6.45	5
0	22462	6.45	3
0	22463	6.45	5
0	22464	6.45	8
0	22465	6.45	5
0	22466	6.45	3
0	22467	6.45	5
0	22468	6.45	3
0	22469	6.45	1
0	22470	6.45	1
0	22559	6.5	3
0	22560	6.5	5
0	22561	6.5	3
0	22562	6.5	5
0	22563	6.5	8
0	22564	6.5	5
0	22565	6.5	3
0	22566	6.5	5
0	22567	6.5	3
0	22568	6.5	1
0	22569	6.5	1
0	22571	6.5	3
0	22572	6.5	5
0	22573	6.5	3
0	22574	6.5	5
0	22575	6.5	8
0	22576	6.5	5
0	22577	6.5	3
0	22578	6.5	5
0	22579	6.5	3
0	22580	6.5	1
0	22581	6.5	1
0	22719	6.55	3
0	22720	6.55	5
0	22721	6.55	3
0	22722	6.55	5
0	22723	6.55	8
0	22724	6.55	5
0	22725	6.55	3
0	22726	6.55	5
0	22727	6.55	3
0	22728	6.55	1
0	22729	6.55	1
0	22841	6.6	3
0	22842	6.6	5
0	22843	6.6	3
0	22844	6.6	5
0	22845	6.6	8
0	22846	6.6	5
0	22847	6.6	3
0	22848	6.6	5
0	22849	6.6	3
0	22850	6.6	1
0	22851	6.6	1
0	22853	6.6	3
0	22854	6.6	5
0	22855	6.6	3
0	22856	6.6	5
0	22857	6.6	8
0	22858	6.6	5
0	22859	6.6	3
0	22860	6.6	5
0	22861	6.6	3
0	22862	6.6	1
0	22863	6.6	1
0	23328	6.65	3
0	23329	6.65	5
0	23330	6.65	3
0	23331	6.65	5
0	23332	6.65	8
0	23333	6.65	5
0	23334	6.65	3
0	23335	6.65	5
0	23336	6.65	3
0	23337	6.65	1
0	23338	6.65	1
0	23501	6.7	3
0	23502	6.7	5
0	23503	6.7	3
0	23504	6.7	5
0	23505	6.7	8
0	23506	6.7	5
0	23507	6.7	3
0	23508	6.7	5
0	23509	6.7	3
0	23510	6.7	1
0	23511	6.7	1
0	23513	6.7	3
0	23514	6.7	5
0	23515	6.7	3
0	23516	6.7	5
0	23517	6.7	8
0	23518	6.7	5
0	23519	6.7	3
0	23520	6.7	5
0	23521	6.7	3
0	23522	6.7	1
0	23523	6.7	1
0	23651	6.75	3
0	23652	6.75	5
0	23653	6.75	3
0	23654	6.75	5
0	23655	6.75	8
0	23656	6.75	5
0	23657	6.75	3
0	23658	6.75	5
0	23659	6.75	3
0	23660	6.75	1
0	23661	6.75	1
0	23796	6.8	3
0	23797	6.8	5
0	23798	6.8	3
0	23799	6.8	5
0	23800	6.8	8
0	23801	6.8	5
0	23802	6.8	3
0	23803	6.8	5
0	23804	6.8	3
0	23805	6.8	1
0	23806	6.8	1
0	23808	6.8	3
0	23809	6.8	5
0	23810	6.8	3
0	23811	6.8	5
0	23812	6.8	8
0	23813	6.8	5
0	23814	6.8	3
0	23815	6.8	5
0	23816	6.8	3
0	23817	6.8	1
0	23818	6.8	1
0	23952	6.85	3
0	23953	6.85	5
0	23954	6.85	3
0	23955	6.85	5
0	23956	6.85	8
0	23957	6.85	5
0	23958	6.85	3
0	23959	6.85	5
0	23960	6.85	3
0	23961	6.85	1
0	23962	6.85	1
0	24074	6.9	3
0	24075	6.9	5
0	24076	6.9	3
0	24077	6.9	5
0	24078	6.9	8
0	24079	6.9	5
0	24080	6.9	3
0	24081	6.9	5
0	24082	6.9	3
0	24083	6.9	1
0	24084	6.9	1
0	24086	6.9	3
0	24087	6.9	5
0	24088	6.9	3
0	24089	6.9	5
0	24090	6.9	8
0	24091	6.9	5
0	24092	6.9	3
0	24093	6.9	5
0	24094	6.9	3
0	24095	6.9	1
0	24096	6.9	1
0	24207	6.95	3
0	24208	6.95	5
0	24209	6.95	3
0	24210	6.95	5
0	24211	6.95	8
0	24212	6.95	5
0	24213	6.95	3
0	24214	6.95	5
0	24215	6.95	3
0	24216	6.95	1
0	24217	6.95	1
0	24317	7	3
0	24318	7	5
0	24319	7	3
0	24320	7	5
0	24321	7	8
0	24322	7	5
0	24323	7	3
0	24324	7	5
0	24325	7	3
0	24326	7	1
0	24327	7	1
0	24329	7	3
0	24330	7	5
0	24331	7	3
0	24332	7	5
0	24333	7	8
0	24334	7	5
0	24335	7	3
0	24336	7	5
0	24337	7	3
0	24338	7	1
0	24339	7	1
0	24450	7.05	3
0	24451	7.05	5
0	24452	7.05	3
0	24453	7.05	5
0	24454	7.05	8
0	24455	7.05	5
0	24456	7.05	3
0	24457	7.05	5
0	24458	7.05	3
0	24459	7.05	1
0	24460	7.05	1
0	24560	7.1	3
0	24561	7.1	5
0	24562	7.1	3
0	24563	7.1	5
0	24564	7.1	8
0	24565	7.1	5
0	24566	7.1	3
0	24567	7.1	5
0	24568	7.1	3
0	24569	7.1	1
0	24570	7.1	1
0	24572	7.1	3
0	24573	7.1	5
0	24574	7.1	3
0	24575	7.1	5
0	24576	7.1	8
0	24577	7.1	5
0	24578	7.1	3
0	24579	7.1	5
0	24580	7.1	3
0	24581	7.1	1
0	24582	7.1	1
0	24727	7.15	3
0	24728	7.15	5
0	24729	7.15	3
0	24730	7.15	5
0	24731	7.15	8
0	24732	7.15	5
0	24733	7.15	3
0	24734	7.15	5
0	24735	7.15	3
0	24736	7.15	1
0	24737	7.15	1
0	25184	7.2	3
0	25185	7.2	5
0	25186	7.2	3
0	25187	7.2	5
0	25188	7.2	8
0	25189	7.2	5
0	25190	7.2	3
0	25191	7.2	5
0	25192	7.2	3
0	25193	7.2	1
0	25194	7.2	1
0	25196	7.2	3
0	25197	7.2	5
0	25198	7.2	3
0	25199	7.2	5
0	25200	7.2	8
0	25201	7.2	5
0	25202	7.2	3
0	25203	7.2	5
0	25204	7.2	3
0	25205	7.2	1
0	25206	7.2	1
0	25384	7.25	3
0	25385	7.25	5
0	25386	7.25	3
0	25387	7.25	5
0	25388	7.25	8
0	25389	7.25	5
0	25390	7.25	3
0	25391	7.25	5
0	25392	7.25	3
0	25393	7.25	1
0	25394	7.25	1
0	25506	7.3	3
0	25507	7.3	5
0	25508	7.3	3
0	25509	7.3	5
0	25510	7.3	8
0	25511	7.3	5
0	25512	7.3	3
0	25513	7.3	5
0	25514	7.3	3
0	25515	7.3	1
0	25516	7.3	1
0	25518	7.3	3
0	25519	7.3	5
0	25520	7.3	3
0	25521	7.3	5
0	25522	7.3	8
0	25523	7.3	5
0	25524	7.3	3
0	25525	7.3	5
0	25526	7.3	3
0	25527	7.3	1
0	25528	7.3	1
0	25685	7.35	3
0	25686	7.35	5
0	25687	7.35	3
0	25688	7.35	5
0	25689	7.35	8
0	25690	7.35	5
0	25691	7.35	3
0	25692	7.35	5
0	25693	7.35	3
0	25694	7.35	1
0	25695	7.35	1
0	25830	7.4	3
0	25831	7.4	5
0	25832	7.4	3
0	25833	7.4	5
0	25834	7.4	8
0	25835	7.4	5
0	25836	7.4	3
0	25837	7.4	5
0	25838	7.4	3
0	25839	7.4	1
0	25840	7.4	1
0	25842	7.4	3
0	25843	7.4	5
0	25844	7.4	3
0	25845	7.4	5
0	25846	7.4	8
0	25847	7.4	5
0	25848	7.4	3
0	25849	7.4	5
0	25850	7.4	3
0	25851	7.4	1
0	25852	7.4	1
0	25986	7.45	3
0	25987	7.45	5
0	25988	7.45	3
0	25989	7.45	5
0	25990	7.45	8
0	25991	7.45	5
0	25992	7.45	3
0	25993	7.45	5
0	25994	7.45	3
0	25995	7.45	1
0	25996	7.45	1
0	26085	7.5	3
0	26086	7.5	5
0	26087	7.5	3
0	26088	7.5	5
0	26089	7.5	8
0	26090	7.5	5
0	26091	7.5	3
0	26092	7.5	5
0	26093	7.5	3
0	26094	7.5	1
0	26095	7.5	1
0	26097	7.5	3
0	26098	7.5	5
0	26099	7.5	3
0	26100	7.5	5
0	26101	7.5	8
0	26102	7.5	5
0	26103	7.5	3
0	26104	7.5	5
0	26105	7.5	3
0	26106	7.5	1
0	26107	7.5	1
0	26218	7.55	3
0	26219	7.55	5
0	26220	7.55	3
0	26221	7.55	5
0	26222	7.55	8
0	26223	7.55	5
0	26224	7.55	3
0	26225	7.55	5
0	26226	7.55	3
0	26227	7.55	1
0	26228	7.55	1
0	26345	7.6	3
0	26346	7.6	5
0	26347	7.6	3
0	26348	7.6	5
0	26349	7.6	8
0	26350	7.6	5
0	26351	7.6	3
0	26352	7.6	5
0	26353	7.6	3
0	26354	7.6	1
0	26355	7.6	1
0	26357	7.6	3
0	26358	7.6	5
0	26359	7.6	3
0	26360	7.6	5
0	26361	7.6	8
0	26362	7.6	5
0	26363	7.6	3
0	26364	7.6	5
0	26365	7.6	3
0	26366	7.6	1
0	26367	7.6	1
0	26478	7.65	3
0	26479	7.65	5
0	26480	7.65	3
0	26481	7.65	5
0	26482	7.65	8
0	26483	7.65	5
0	26484	7.65	3
0	26485	7.65	5
0	26486	7.65	3
0	26487	7.65	1
0	26488	7.65	1
0	26623	7.7	3
0	26624	7.7	5
0	26625	7.7	3
0	26626	7.7	5
0	26627	7.7	8
0	26628	7.7	5
0	26629	7.7	3
0	26630	7.7	5
0	26631	7.7	3
0	26632	7.7	1
0	26633	7.7	1
0	26635	7.7	3
0	26636	7.7	5
0	26637	7.7	3
0	26638	7.7	5
0	26639	7.7	8
0	26640	7.7	5
0	26641	7.7	3
0	26642	7.7	5
0	26643	7.7	3
0	26644	7.7	1
0	26645	7.7	1
0	27102	7.75	3
0	27103	7.75	5
0	27104	7.75	3
0	27105	7.75	5
0	27106	7.75	8
0	27107	7.75	5
0	27108	7.75	3
0	27109	7.75	5
0	27110	7.75	3
0	27111	7.75	1
0	27112	7.75	1
0	27262	7.8	3
0	27263	7.8	5
0	27264	7.8	3
0	27265	7.8	5
0	27266	7.8	8
0	27267	7.8	5
0	27268	7.8	3
0	27269	7.8	5
0	27270	7.8	3
0	27271	7.8	1
0	27272	7.8	1
0	27274	7.8	3
0	27275	7.8	5
0	27276	7.8	3
0	27277	7.8	5
0	27278	7.8	8
0	27279	7.8	5
0	27280	7.8	3
0	27281	7.8	5
0	27282	7.8	3
0	27283	7.8	1
0	27284	7.8	1
0	27485	7.85	3
0	27486	7.85	5
0	27487	7.85	3
0	27488	7.85	5
0	27489	7.85	8
0	27490	7.85	5
0	27491	7.85	3
0	27492	7.85	5
0	27493	7.85	3
0	27494	7.85	1
0	27495	7.85	1
0	27635	7.9	3
0	27636	7.9	5
0	27637	7.9	3
0	27638	7.9	5
0	27639	7.9	8
0	27640	7.9	5
0	27641	7.9	3
0	27642	7.9	5
0	27643	7.9	3
0	27644	7.9	1
0	27645	7.9	1
0	27647	7.9	3
0	27648	7.9	5
0	27649	7.9	3
0	27650	7.9	5
0	27651	7.9	8
0	27652	7.9	5
0	27653	7.9	3
0	27654	7.9	5
0	27655	7.9	3
0	27656	7.9	1
0	27657	7.9	1
0	27791	7.95	3
0	27792	7.95	5
0	27793	7.95	3
0	27794	7.95	5
0	27795	7.95	8
0	27796	7.95	5
0	27797	7.95	3
0	27798	7.95	5
0	27799	7.95	3
0	27800	7.95	1
0	27801	7.95	1
0	27947	8	3
0	27948	8	5
0	27949	8	3
0	27950	8	5
0	27951	8	8
0	27952	8	5
0	27953	8	3
0	27954	8	5
0	27955	8	3
0	27956	8	1
0	27957	8	1
0	27959	8	3
0	27960	8	5
0	27961	8	3
0	27962	8	5
0	27963	8	8
0	27964	8	5
0	27965	8	3
0	27966	8	5
0	27967	8	3
0	27968	8	1
0	27969	8	1
0	28080	8.05	3
0	28081	8.05	5
0	28082	8.05	3
0	28083	8.05	5
0	28084	8.05	8
0	28085	8.05	5
0	28086	8.05	3
0	28087	8.05	5
0	28088	8.05	3
0	28089	8.05	1
0	28090	8.05	1
0	28190	8.1	3
0	28191	8.1	5
0	28192	8.1	3
0	28193	8.1	5
0	28194	8.1	8
0	28195	8.1	5
0	28196	8.1	3
0	28197	8.1	5
0	28198	8.1	3
0	28199	8.1	1
0	28200	8.1	1
0	28202	8.1	3
0	28203	8.1	5
0	28204	8.1	3
0	28205	8.1	5
0	28206	8.1	8
0	28207	8.1	5
0	28208	8.1	3
0	28209	8.1	5
0	28210	8.1	3
0	28211	8.1	1
0	28212	8.1	1
0	28379	8.15	3
0	28380	8.15	5
0	28381	8.15	3
0	28382	8.15	5
0	28383	8.15	8
0	28384	8.15	5
0	28385	8.15	3
0	28386	8.15	5
0	28387	8.15	3
0	28388	8.15	1
0	28389	8.15	1
0	28524	8.2	3
0	28525	8.2	5
0	28526	8.2	3
0	28527	8.2	5
0	28528	8.2	8
0	28529	8.2	5
0	28530	8.2	3
0	28531	8.2	5
0	28532	8.2	3
0	28533	8.2	1
0	28534	8.2	1
0	28536	8.2	3
0	28537	8.2	5
0	28538	8.2	3
0	28539	8.2	5
0	28540	8.2	8
0	28541	8.2	5
0	28542	8.2	3
0	28543	8.2	5
0	28544	8.2	3
0	28545	8.2	1
0	28546	8.2	1
0	28657	8.25	3
0	28658	8.25	5
0	28659	8.25	3
0	28660	8.25	5
0	28661	8.25	8
0	28662	8.25	5
0	28663	8.25	3
0	28664	8.25	5
0	28665	8.25	3
0	28666	8.25	1
0	28667	8.25	1
0	29101	8.3	3
0	29102	8.3	5
0	29103	8.3	3
0	29104	8.3	5
0	29105	8.3	8
0	29106	8.3	5
0	29107	8.3	3
0	29108	8.3	5
0	29109	8.3	3
0	29110	8.3	1
0	29111	8.3	1
0	29113	8.3	3
0	29114	8.3	5
0	29115	8.3	3
0	29116	8.3	5
0	29117	8.3	8
0	29118	8.3	5
0	29119	8.3	3
0	29120	8.3	5
0	29121	8.3	3
0	29122	8.3	1
0	29123	8.3	1
0	29323	8.35	3
0	29324	8.35	5
0	29325	8.35	3
0	29326	8.35	5
0	29327	8.35	8
0	29328	8.35	5
0	29329	8.35	3
0	29330	8.35	5
0	29331	8.35	3
0	29332	8.35	1
0	29333	8.35	1
0	29491	8.4	3
0	29492	8.4	5
0	29493	8.4	3
0	29494	8.4	5
0	29495	8.4	8
0	29496	8.4	5
0	29497	8.4	3
0	29498	8.4	5
0	29499	8.4	3
0	29500	8.4	1
0	29501	8.4	1
0	29503	8.4	3
0	29504	8.4	5
0	29505	8.4	3
0	29506	8.4	5
0	29507	8.4	8
0	29508	8.4	5
0	29509	8.4	3
0	29510	8.4	5
0	29511	8.4	3
0	29512	8.4	1
0	29513	8.4	1
0	29647	8.45	3
0	29648	8.45	5
0	29649	8.45	3
0	29650	8.45	5
0	29651	8.45	8
0	29652	8.45	5
0	29653	8.45	3
0	29654	8.45	5
0	29655	8.45	3
0	29656	8.45	1
0	29657	8.45	1
0	29746	8.5	3
0	29747	8.5	5
0	29748	8.5	3
0	29749	8.5	5
0	29750	8.5	8
0	29751	8.5	5
0	29752	8.5	3
0	29753	8.5	5
0	29754	8.5	3
0	29755	8.5	1
0	29756	8.5	1
0	29758	8.5	3
0	29759	8.5	5
0	29760	8.5	3
0	29761	8.5	5
0	29762	8.5	8
0	29763	8.5	5
0	29764	8.5	3
0	29765	8.5	5
0	29766	8.5	3
0	29767	8.5	1
0	29768	8.5	1
0	29907	8.55	3
0	29908	8.55	5
0	29909	8.55	3
0	29910	8.55	5
0	29911	8.55	8
0	29912	8.55	5
0	29913	8.55	3
0	29914	8.55	5
0	29915	8.55	3
0	29916	8.55	1
0	29917	8.55	1
0	30006	8.6	3
0	30007	8.6	5
0	30008	8.6	3
0	30009	8.6	5
0	30010	8.6	8
0	30011	8.6	5
0	30012	8.6	3
0	30013	8.6	5
0	30014	8.6	3
0	30015	8.6	1
0	30016	8.6	1
0	30018	8.6	3
0	30019	8.6	5
0	30020	8.6	3
0	30021	8.6	5
0	30022	8.6	8
0	30023	8.6	5
0	30024	8.6	3
0	30025	8.6	5
0	30026	8.6	3
0	30027	8.6	1
0	30028	8.6	1
0	30139	8.65	3
0	30140	8.65	5
0	30141	8.65	3
0	30142	8.65	5
0	30143	8.65	8
0	30144	8.65	5
0	30145	8.65	3
0	30146	8.65	5
0	30147	8.65	3
0	30148	8.65	1
0	30149	8.65	1
0	30284	8.7	3
0	30285	8.7	5
0	30286	8.7	3
0	30287	8.7	5
0	30288	8.7	8
0	30289	8.7	5
0	30290	8.7	3
0	30291	8.7	5
0	30292	8.7	3
0	30293	8.7	1
0	30294	8.7	1
0	30296	8.7	3
0	30297	8.7	5
0	30298	8.7	3
0	30299	8.7	5
0	30300	8.7	8
0	30301	8.7	5
0	30302	8.7	3
0	30303	8.7	5
0	30304	8.7	3
0	30305	8.7	1
0	30306	8.7	1
0	30463	8.75	3
0	30464	8.75	5
0	30465	8.75	3
0	30466	8.75	5
0	30467	8.75	8
0	30468	8.75	5
0	30469	8.75	3
0	30470	8.75	5
0	30471	8.75	3
0	30472	8.75	1
0	30473	8.75	1
0	30562	8.8	3
0	30563	8.8	5
0	30564	8.8	3
0	30565	8.8	5
0	30566	8.8	8
0	30567	8.8	5
0	30568	8.8	3
0	30569	8.8	5
0	30570	8.8	3
0	30571	8.8	1
0	30572	8.8	1
0	30574	8.8	3
0	30575	8.8	5
0	30576	8.8	3
0	30577	8.8	5
0	30578	8.8	8
0	30579	8.8	5
0	30580	8.8	3
0	30581	8.8	5
0	30582	8.8	3
0	30583	8.8	1
0	30584	8.8	1
0	31059	8.85	3
0	31060	8.85	5
0	31061	8.85	3
0	31062	8.85	5
0	31063	8.85	8
0	31064	8.85	5
0	31065	8.85	3
0	31066	8.85	5
0	31067	8.85	3
0	31068	8.85	1
0	31069	8.85	1
0	31185	8.9	3
0	31186	8.9	5
0	31187	8.9	3
0	31188	8.9	5
0	31189	8.9	8
0	31190	8.9	5
0	31191	8.9	3
0	31192	8.9	5
0	31193	8.9	3
0	31194	8.9	1
0	31195	8.9	1
0	31197	8.9	3
0	31198	8.9	5
0	31199	8.9	3
0	31200	8.9	5
0	31201	8.9	8
0	31202	8.9	5
0	31203	8.9	3
0	31204	8.9	5
0	31205	8.9	3
0	31206	8.9	1
0	31207	8.9	1
0	31410	8.95	3
0	31411	8.95	5
0	31412	8.95	3
0	31413	8.95	5
0	31414	8.95	8
0	31415	8.95	5
0	31416	8.95	3
0	31417	8.95	5
0	31418	8.95	3
0	31419	8.95	1
0	31420	8.95	1
0	31543	9	3
0	31544	9	5
0	31545	9	3
0	31546	9	5
0	31547	9	8
0	31548	9	5
0	31549	9	3
0	31550	9	5
0	31551	9	3
0	31552	9	1
0	31553	9	1
0	31555	9	3
0	31556	9	5
0	31557	9	3
0	31558	9	5
0	31559	9	8
0	31560	9	5
0	31561	9	3
0	31562	9	5
0	31563	9	3
0	31564	9	1
0	31565	9	1
0	31676	9.05	3
0	31677	9.05	5
0	31678	9.05	3
0	31679	9.05	5
0	31680	9.05	8
0	31681	9.05	5
0	31682	9.05	3
0	31683	9.05	5
0	31684	9.05	3
0	31685	9.05	1
0	31686	9.05	1
0	31832	9.1	3
0	31833	9.1	5
0	31834	9.1	3
0	31835	9.1	5
0	31836	9.1	8
0	31837	9.1	5
0	31838	9.1	3
0	31839	9.1	5
0	31840	9.1	3
0	31841	9.1	1
0	31842	9.1	1
0	31844	9.1	3
0	31845	9.1	5
0	31846	9.1	3
0	31847	9.1	5
0	31848	9.1	8
0	31849	9.1	5
0	31850	9.1	3
0	31851	9.1	5
0	31852	9.1	3
0	31853	9.1	1
0	31854	9.1	1
0	31976	9.15	3
0	31977	9.15	5
0	31978	9.15	3
0	31979	9.15	5
0	31980	9.15	8
0	31981	9.15	5
0	31982	9.15	3
0	31983	9.15	5
0	31984	9.15	3
0	31985	9.15	1
0	31986	9.15	1
0	32115	9.2	3
0	32116	9.2	5
0	32117	9.2	3
0	32118	9.2	5
0	32119	9.2	8
0	32120	9.2	5
0	32121	9.2	3
0	32122	9.2	5
0	32123	9.2	3
0	32124	9.2	1
0	32125	9.2	1
0	32127	9.2	3
0	32128	9.2	5
0	32129	9.2	3
0	32130	9.2	5
0	32131	9.2	8
0	32132	9.2	5
0	32133	9.2	3
0	32134	9.2	5
0	32135	9.2	3
0	32136	9.2	1
0	32137	9.2	1
0	32258	9.25	3
0	32259	9.25	5
0	32260	9.25	3
0	32261	9.25	5
0	32262	9.25	8
0	32263	9.25	5
0	32264	9.25	3
0	32265	9.25	5
0	32266	9.25	3
0	32267	9.25	1
0	32268	9.25	1
0	32403	9.3	3
0	32404	9.3	5
0	32405	9.3	3
0	32406	9.3	5
0	32407	9.3	8
0	32408	9.3	5
0	32409	9.3	3
0	32410	9.3	5
0	32411	9.3	3
0	32412	9.3	1
0	32413	9.3	1
0	32415	9.3	3
0	32416	9.3	5
0	32417	9.3	3
0	32418	9.3	5
0	32419	9.3	8
0	32420	9.3	5
0	32421	9.3	3
0	32422	9.3	5
0	32423	9.3	3
0	32424	9.3	1
0	32425	9.3	1
0	32576	9.35	3
0	32577	9.35	5
0	32578	9.35	3
0	32579	9.35	5
0	32580	9.35	8
0	32581	9.35	5
0	32582	9.35	3
0	32583	9.35	5
0	32584	9.35	3
0	32585	9.35	1
0	32586	9.35	1
0	32984	9.4	3
0	32985	9.4	5
0	32986	9.4	3
0	32987	9.4	5
0	32988	9.4	8
0	32989	9.4	5
0	32990	9.4	3
0	32991	9.4	5
0	32992	9.4	3
0	32993	9.4	1
0	32994	9.4	1
0	32996	9.4	3
0	32997	9.4	5
0	32998	9.4	3
0	32999	9.4	5
0	33000	9.4	8
0	33001	9.4	5
0	33002	9.4	3
0	33003	9.4	5
0	33004	9.4	3
0	33005	9.4	1
0	33006	9.4	1
0	33135	9.45	3
0	33136	9.45	5
0	33137	9.45	3
0	33138	9.45	5
0	33139	9.45	8
0	33140	9.45	5
0	33141	9.45	3
0	33142	9.45	5
0	33143	9.45	3
0	33144	9.45	1
0	33145	9.45	1
0	33353	9.5	3
0	33354	9.5	5
0	33355	9.5	3
0	33356	9.5	5
0	33357	9.5	8
0	33358	9.5	5
0	33359	9.5	3
0	33360	9.5	5
0	33361	9.5	3
0	33362	9.5	1
0	33363	9.5	1
0	33365	9.5	3
0	33366	9.5	5
0	33367	9.5	3
0	33368	9.5	5
0	33369	9.5	8
0	33370	9.5	5
0	33371	9.5	3
0	33372	9.5	5
0	33373	9.5	3
0	33374	9.5	1
0	33375	9.5	1
0	33509	9.55	3
0	33510	9.55	5
0	33511	9.55	3
0	33512	9.55	5
0	33513	9.55	8
0	33514	9.55	5
0	33515	9.55	3
0	33516	9.55	5
0	33517	9.55	3
0	33518	9.55	1
0	33519	9.55	1
0	33608	9.6	3
0	33609	9.6	5
0	33610	9.6	3
0	33611	9.6	5
0	33612	9.6	8
0	33613	9.6	5
0	33614	9.6	3
0	33615	9.6	5
0	33616	9.6	3
0	33617	9.6	1
0	33618	9.6	1
0	33620	9.6	3
0	33621	9.6	5
0	33622	9.6	3
0	33623	9.6	5
0	33624	9.6	8
0	33625	9.6	5
0	33626	9.6	3
0	33627	9.6	5
0	33628	9.6	3
0	33629	9.6	1
0	33630	9.6	1
0	33810	9.65	3
0	33811	9.65	5
0	33812	9.65	3
0	33813	9.65	5
0	33814	9.65	8
0	33815	9.65	5
0	33816	9.65	3
0	33817	9.65	5
0	33818	9.65	3
0	33819	9.65	1
0	33820	9.65	1
0	33909	9.7	3
0	33910	9.7	5
0	33911	9.7	3
0	33912	9.7	5
0	33913	9.7	8
0	33914	9.7	5
0	33915	9.7	3
0	33916	9.7	5
0	33917	9.7	3
0	33918	9.7	1
0	33919	9.7	1
0	33921	9.7	3
0	33922	9.7	5
0	33923	9.7	3
0	33924	9.7	5
0	33925	9.7	8
0	33926	9.7	5
0	33927	9.7	3
0	33928	9.7	5
0	33929	9.7	3
0	33930	9.7	1
0	33931	9.7	1
0	34111	9.75	3
0	34112	9.75	5
0	34113	9.75	3
0	34114	9.75	5
0	34115	9.75	8
0	34116	9.75	5
0	34117	9.75	3
0	34118	9.75	5
0	34119	9.75	3
0	34120	9.75	1
0	34121	9.75	1
0	34210	9.8	3
0	34211	9.8	5
0	34212	9.8	3
0	34213	9.8	5
0	34214	9.8	8
0	34215	9.8	5
0	34216	9.8	3
0	34217	9.8	5
0	34218	9.8	3
0	34219	9.8	1
0	34220	9.8	1
0	34222	9.8	3
0	34223	9.8	5
0	34224	9.8	3
0	34225	9.8	5
0	34226	9.8	8
0	34227	9.8	5
0	34228	9.8	3
0	34229	9.8	5
0	34230	9.8	3
0	34231	9.8	1
0	34232	9.8	1
0	34389	9.85	3
0	34390	9.85	5
0	34391	9.85	3
0	34392	9.85	5
0	34393	9.85	8
0	34394	9.85	5
0	34395	9.85	3
0	34396	9.85	5
0	34397	9.85	3
0	34398	9.85	1
0	34399	9.85	1
0	34597	9.9	3
0	34598	9.9	5
0	34599	9.9	3
0	34600	9.9	5
0	34601	9.9	8
0	34602	9.9	5
0	34603	9.9	3
0	34604	9.9	5
0	34605	9.9	3
0	34606	9.9	1
0	34607	9.9	1
0	34609	9.9	3
0	34610	9.9	5
0	34611	9.9	3
0	34612	9.9	5
0	34613	9.9	8
0	34614	9.9	5
0	34615	9.9	3
0	34616	9.9	5
0	34617	9.9	3
0	34618	9.9	1
0	34619	9.9	1
0	35027	9.95	3
0	35028	9.95	5
0	35029	9.95	3
0	35030	9.95	5
0	35031	9.95	8
0	35032	9.95	5
0	35033	9.95	3
0	35034	9.95	5
0	35035	9.95	3
0	35036	9.95	1
0	35037	9.95	1
0	35185	10	3
0	35186	10	5
0	35187	10	3
0	35188	10	5
0	35189	10	8
0	35190	10	5
0	35191	10	3
0	35192	10	5
0	35193	10	3
0	35194	10	1
0	35195	10	1
0	35197	10	3
0	35198	10	5
0	35199	10	3
0	35200	10	5
0	35201	10	8
0	35202	10	5
0	35203	10	3
0	35204	10	5
0	35205	10	3
0	35206	10	1
0	35207	10	1
0	35473	10.05	3
0	35474	10.05	5
0	35475	10.05	3
0	35476	10.05	5
0	35477	10.05	8
0	35478	10.05	5
0	35479	10.05	3
0	35480	10.05	5
0	35481	10.05	3
0	35482	10.05	1
0	35483	10.05	1
0	35629	10.1	3
0	35630	10.1	5
0	35631	10.1	3
0	35632	10.1	5
0	35633	10.1	8
0	35634	10.1	5
0	35635	10.1	3
0	35636	10.1	5
0	35637	10.1	3
0	35638	10.1	1
0	35639	10.1	1
0	35641	10.1	3
0	35642	10.1	5
0	35643	10.1	3
0	35644	10.1	5
0	35645	10.1	8
0	35646	10.1	5
0	35647	10.1	3
0	35648	10.1	5
0	35649	10.1	3
0	35650	10.1	1
0	35651	10.1	1
0	35796	10.15	3
0	35797	10.15	5
0	35798	10.15	3
0	35799	10.15	5
0	35800	10.15	8
0	35801	10.15	5
0	35802	10.15	3
0	35803	10.15	5
0	35804	10.15	3
0	35805	10.15	1
0	35806	10.15	1
0	35958	10.2	3
0	35959	10.2	5
0	35960	10.2	3
0	35961	10.2	5
0	35962	10.2	8
0	35963	10.2	5
0	35964	10.2	3
0	35965	10.2	5
0	35966	10.2	3
0	35967	10.2	1
0	35968	10.2	1
0	35970	10.2	3
0	35971	10.2	5
0	35972	10.2	3
0	35973	10.2	5
0	35974	10.2	8
0	35975	10.2	5
0	35976	10.2	3
0	35977	10.2	5
0	35978	10.2	3
0	35979	10.2	1
0	35980	10.2	1
0	36091	10.25	3
0	36092	10.25	5
0	36093	10.25	3
0	36094	10.25	5
0	36095	10.25	8
0	36096	10.25	5
0	36097	10.25	3
0	36098	10.25	5
0	36099	10.25	3
0	36100	10.25	1
0	36101	10.25	1
0	36241	10.3	3
0	36242	10.3	5
0	36243	10.3	3
0	36244	10.3	5
0	36245	10.3	8
0	36246	10.3	5
0	36247	10.3	3
0	36248	10.3	5
0	36249	10.3	3
0	36250	10.3	1
0	36251	10.3	1
0	36253	10.3	3
0	36254	10.3	5
0	36255	10.3	3
0	36256	10.3	5
0	36257	10.3	8
0	36258	10.3	5
0	36259	10.3	3
0	36260	10.3	5
0	36261	10.3	3
0	36262	10.3	1
0	36263	10.3	1
0	36374	10.35	3
0	36375	10.35	5
0	36376	10.35	3
0	36377	10.35	5
0	36378	10.35	8
0	36379	10.35	5
0	36380	10.35	3
0	36381	10.35	5
0	36382	10.35	3
0	36383	10.35	1
0	36384	10.35	1
0	36519	10.4	3
0	36520	10.4	5
0	36521	10.4	3
0	36522	10.4	5
0	36523	10.4	8
0	36524	10.4	5
0	36525	10.4	3
0	36526	10.4	5
0	36527	10.4	3
0	36528	10.4	1
0	36529	10.4	1
0	36531	10.4	3
0	36532	10.4	5
0	36533	10.4	3
0	36534	10.4	5
0	36535	10.4	8
0	36536	10.4	5
0	36537	10.4	3
0	36538	10.4	5
0	36539	10.4	3
0	36540	10.4	1
0	36541	10.4	1
0	36706	10.45	3
0	36707	10.45	5
0	36708	10.45	3
0	36709	10.45	5
0	36710	10.45	8
0	36711	10.45	5
0	36712	10.45	3
0	36713	10.45	5
0	36714	10.45	3
0	36715	10.45	1
0	36716	10.45	1
0	37078	10.5	3
0	37079	10.5	5
0	37080	10.5	3
0	37081	10.5	5
0	37082	10.5	8
0	37083	10.5	5
0	37084	10.5	3
0	37085	10.5	5
0	37086	10.5	3
0	37087	10.5	1
0	37088	10.5	1
0	37090	10.5	3
0	37091	10.5	5
0	37092	10.5	3
0	37093	10.5	5
0	37094	10.5	8
0	37095	10.5	5
0	37096	10.5	3
0	37097	10.5	5
0	37098	10.5	3
0	37099	10.5	1
0	37100	10.5	1
0	37259	10.55	3
0	37260	10.55	5
0	37261	10.55	3
0	37262	10.55	5
0	37263	10.55	8
0	37264	10.55	5
0	37265	10.55	3
0	37266	10.55	5
0	37267	10.55	3
0	37268	10.55	1
0	37269	10.55	1
0	37472	10.6	3
0	37473	10.6	5
0	37474	10.6	3
0	37475	10.6	5
0	37476	10.6	8
0	37477	10.6	5
0	37478	10.6	3
0	37479	10.6	5
0	37480	10.6	3
0	37481	10.6	1
0	37482	10.6	1
0	37484	10.6	3
0	37485	10.6	5
0	37486	10.6	3
0	37487	10.6	5
0	37488	10.6	8
0	37489	10.6	5
0	37490	10.6	3
0	37491	10.6	5
0	37492	10.6	3
0	37493	10.6	1
0	37494	10.6	1
0	37651	10.65	3
0	37652	10.65	5
0	37653	10.65	3
0	37654	10.65	5
0	37655	10.65	8
0	37656	10.65	5
0	37657	10.65	3
0	37658	10.65	5
0	37659	10.65	3
0	37660	10.65	1
0	37661	10.65	1
0	37773	10.7	3
0	37774	10.7	5
0	37775	10.7	3
0	37776	10.7	5
0	37777	10.7	8
0	37778	10.7	5
0	37779	10.7	3
0	37780	10.7	5
0	37781	10.7	3
0	37782	10.7	1
0	37783	10.7	1
0	37785	10.7	3
0	37786	10.7	5
0	37787	10.7	3
0	37788	10.7	5
0	37789	10.7	8
0	37790	10.7	5
0	37791	10.7	3
0	37792	10.7	5
0	37793	10.7	3
0	37794	10.7	1
0	37795	10.7	1
0	37957	10.75	3
0	37958	10.75	5
0	37959	10.75	3
0	37960	10.75	5
0	37961	10.75	8
0	37962	10.75	5
0	37963	10.75	3
0	37964	10.75	5
0	37965	10.75	3
0	37966	10.75	1
0	37967	10.75	1
0	38056	10.8	3
0	38057	10.8	5
0	38058	10.8	3
0	38059	10.8	5
0	38060	10.8	8
0	38061	10.8	5
0	38062	10.8	3
0	38063	10.8	5
0	38064	10.8	3
0	38065	10.8	1
0	38066	10.8	1
0	38068	10.8	3
0	38069	10.8	5
0	38070	10.8	3
0	38071	10.8	5
0	38072	10.8	8
0	38073	10.8	5
0	38074	10.8	3
0	38075	10.8	5
0	38076	10.8	3
0	38077	10.8	1
0	38078	10.8	1
0	38229	10.85	3
0	38230	10.85	5
0	38231	10.85	3
0	38232	10.85	5
0	38233	10.85	8
0	38234	10.85	5
0	38235	10.85	3
0	38236	10.85	5
0	38237	10.85	3
0	38238	10.85	1
0	38239	10.85	1
0	38328	10.9	3
0	38329	10.9	5
0	38330	10.9	3
0	38331	10.9	5
0	38332	10.9	8
0	38333	10.9	5
0	38334	10.9	3
0	38335	10.9	5
0	38336	10.9	3
0	38337	10.9	1
0	38338	10.9	1
0	38340	10.9	3
0	38341	10.9	5
0	38342	10.9	3
0	38343	10.9	5
0	38344	10.9	8
0	38345	10.9	5
0	38346	10.9	3
0	38347	10.9	5
0	38348	10.9	3
0	38349	10.9	1
0	38350	10.9	1
0	38484	10.95	3
0	38485	10.95	5
0	38486	10.95	3
0	38487	10.95	5
0	38488	10.95	8
0	38489	10.95	5
0	38490	10.95	3
0	38491	10.95	5
0	38492	10.95	3
0	38493	10.95	1
0	38494	10.95	1
0	38657	11	3
0	38658	11	5
0	38659	11	3
0	38660	11	5
0	38661	11	8
0	38662	11	5
0	38663	11	3
0	38664	11	5
0	38665	11	3
0	38666	11	1
0	38667	11	1
0	38669	11	3
0	38670	11	5
0	38671	11	3
0	38672	11	5
0	38673	11	8
0	38674	11	5
0	38675	11	3
0	38676	11	5
0	38677	11	3
0	38678	11	1
0	38679	11	1
0	39133	11.05	3
0	39134	11.05	5
0	39135	11.05	3
0	39136	11.05	5
0	39137	11.05	8
0	39138	11.05	5
0	39139	11.05	3
0	39140	11.05	5
0	39141	11.05	3
0	39142	11.05	1
0	39143	11.05	1
0	39393	11.1	3
0	39394	11.1	5
0	39395	11.1	3
0	39396	11.1	5
0	39397	11.1	8
0	39398	11.1	5
0	39399	11.1	3
0	39400	11.1	5
0	39401	11.1	3
0	39402	11.1	1
0	39403	11.1	1
0	39405	11.1	3
0	39406	11.1	5
0	39407	11.1	3
0	39408	11.1	5
0	39409	11.1	8
0	39410	11.1	5
0	39411	11.1	3
0	39412	11.1	5
0	39413	11.1	3
0	39414	11.1	1
0	39415	11.1	1
0	39737	11.15	3
0	39738	11.15	5
0	39739	11.15	3
0	39740	11.15	5
0	39741	11.15	8
0	39742	11.15	5
0	39743	11.15	3
0	39744	11.15	5
0	39745	11.15	3
0	39746	11.15	1
0	39747	11.15	1
0	40023	11.2	3
0	40024	11.2	5
0	40025	11.2	3
0	40026	11.2	5
0	40027	11.2	8
0	40028	11.2	5
0	40029	11.2	3
0	40030	11.2	5
0	40031	11.2	3
0	40032	11.2	1
0	40033	11.2	1
0	40035	11.2	3
0	40036	11.2	5
0	40037	11.2	3
0	40038	11.2	5
0	40039	11.2	8
0	40040	11.2	5
0	40041	11.2	3
0	40042	11.2	5
0	40043	11.2	3
0	40044	11.2	1
0	40045	11.2	1
0	40354	11.25	3
0	40355	11.25	5
0	40356	11.25	3
0	40357	11.25	5
0	40358	11.25	8
0	40359	11.25	5
0	40360	11.25	3
0	40361	11.25	5
0	40362	11.25	3
0	40363	11.25	1
0	40364	11.25	1
0	40634	11.3	3
0	40635	11.3	5
0	40636	11.3	3
0	40637	11.3	5
0	40638	11.3	8
0	40639	11.3	5
0	40640	11.3	3
0	40641	11.3	5
0	40642	11.3	3
0	40643	11.3	1
0	40644	11.3	1
0	40646	11.3	3
0	40647	11.3	5
0	40648	11.3	3
0	40649	11.3	5
0	40650	11.3	8
0	40651	11.3	5
0	40652	11.3	3
0	40653	11.3	5
0	40654	11.3	3
0	40655	11.3	1
0	40656	11.3	1
0	40895	11.35	3
0	40896	11.35	5
0	40897	11.35	3
0	40898	11.35	5
0	40899	11.35	8
0	40900	11.35	5
0	40901	11.35	3
0	40902	11.35	5
0	40903	11.35	3
0	40904	11.35	1
0	40905	11.35	1
0	41110	11.4	3
0	41111	11.4	5
0	41112	11.4	3
0	41113	11.4	5
0	41114	11.4	8
0	41115	11.4	5
0	41116	11.4	3
0	41117	11.4	5
0	41118	11.4	3
0	41119	11.4	1
0	41120	11.4	1
0	41122	11.4	3
0	41123	11.4	5
0	41124	11.4	3
0	41125	11.4	5
0	41126	11.4	8
0	41127	11.4	5
0	41128	11.4	3
0	41129	11.4	5
0	41130	11.4	3
0	41131	11.4	1
0	41132	11.4	1
0	41243	11.45	3
0	41244	11.45	5
0	41245	11.45	3
0	41246	11.45	5
0	41247	11.45	8
0	41248	11.45	5
0	41249	11.45	3
0	41250	11.45	5
0	41251	11.45	3
0	41252	11.45	1
0	41253	11.45	1
0	41388	11.5	3
0	41389	11.5	5
0	41390	11.5	3
0	41391	11.5	5
0	41392	11.5	8
0	41393	11.5	5
0	41394	11.5	3
0	41395	11.5	5
0	41396	11.5	3
0	41397	11.5	1
0	41398	11.5	1
0	41400	11.5	3
0	41401	11.5	5
0	41402	11.5	3
0	41403	11.5	5
0	41404	11.5	8
0	41405	11.5	5
0	41406	11.5	3
0	41407	11.5	5
0	41408	11.5	3
0	41409	11.5	1
0	41410	11.5	1
0	41549	11.55	3
0	41550	11.55	5
0	41551	11.55	3
0	41552	11.55	5
0	41553	11.55	8
0	41554	11.55	5
0	41555	11.55	3
0	41556	11.55	5
0	41557	11.55	3
0	41558	11.55	1
0	41559	11.55	1
0	41928	11.6	3
0	41929	11.6	5
0	41930	11.6	3
0	41931	11.6	5
0	41932	11.6	8
0	41933	11.6	5
0	41934	11.6	3
0	41935	11.6	5
0	41936	11.6	3
0	41937	11.6	1
0	41938	11.6	1
0	41940	11.6	3
0	41941	11.6	5
0	41942	11.6	3
0	41943	11.6	5
0	41944	11.6	8
0	41945	11.6	5
0	41946	11.6	3
0	41947	11.6	5
0	41948	11.6	3
0	41949	11.6	1
0	41950	11.6	1
0	42211	11.65	3
0	42212	11.65	5
0	42213	11.65	3
0	42214	11.65	5
0	42215	11.65	8
0	42216	11.65	5
0	42217	11.65	3
0	42218	11.65	5
0	42219	11.65	3
0	42220	11.65	1
0	42221	11.65	1
0	42418	11.7	3
0	42419	11.7	5
0	42420	11.7	3
0	42421	11.7	5
0	42422	11.7	8
0	42423	11.7	5
0	42424	11.7	3
0	42425	11.7	5
0	42426	11.7	3
0	42427	11.7	1
0	42428	11.7	1
0	42430	11.7	3
0	42431	11.7	5
0	42432	11.7	3
0	42433	11.7	5
0	42434	11.7	8
0	42435	11.7	5
0	42436	11.7	3
0	42437	11.7	5
0	42438	11.7	3
0	42439	11.7	1
0	42440	11.7	1
0	42646	11.75	3
0	42647	11.75	5
0	42648	11.75	3
0	42649	11.75	5
0	42650	11.75	8
0	42651	11.75	5
0	42652	11.75	3
0	42653	11.75	5
0	42654	11.75	3
0	42655	11.75	1
0	42656	11.75	1
0	42872	11.8	3
0	42873	11.8	5
0	42874	11.8	3
0	42875	11.8	5
0	42876	11.8	8
0	42877	11.8	5
0	42878	11.8	3
0	42879	11.8	5
0	42880	11.8	3
0	42881	11.8	1
0	42882	11.8	1
0	42884	11.8	3
0	42885	11.8	5
0	42886	11.8	3
0	42887	11.8	5
0	42888	11.8	8
0	42889	11.8	5
0	42890	11.8	3
0	42891	11.8	5
0	42892	11.8	3
0	42893	11.8	1
0	42894	11.8	1
0	43085	11.85	3
0	43086	11.85	5
0	43087	11.85	3
0	43088	11.85	5
0	43089	11.85	8
0	43090	11.85	5
0	43091	11.85	3
0	43092	11.85	5
0	43093	11.85	3
0	43094	11.85	1
0	43095	11.85	1
1	133	0.1	nan
1	135	0.1	nan
1	137	0.1	nan
1	139	0.1	nan
1	141	0.1	nan
1	143	0.1	nan
1	145	0.1	nan
1	147	0.1	nan
1	149	0.1	nan
1	151	0.1	nan
1	153	0.1	nan
1	2475	1.1	nan
1	2476	1.1	nan
1	2477	1.1	nan
1	2478	1.1	nan
1	2479	1.1	nan
1	2480	1.1	nan
1	2481	1.1	nan
1	2482	1.1	nan
1	2483	1.1	nan
1	2484	1.1	nan
1	2485	1.1	nan
1	6426	2.1	nan
1	6427	2.1	nan
1	6428	2.1	nan
1	6429	2.1	nan
1	6430	2.1	nan
1	6431	2.1	nan
1	6432	2.1	nan
1	6433	2.1	nan
1	6434	2.1	nan
1	6435	2.1	nan
1	6436	2.1	nan
1	10219	3.1	nan
1	10220	3.1	nan
1	10221	3.1	nan
1	10222	3.1	nan
1	10223	3.1	nan
1	10224	3.1	nan
1	10225	3.1	nan
1	10226	3.1	nan
1	10227	3.1	nan
1	10228	3.1	nan
1	10229	3.1	nan
1	13875	4.1	nan
1	13876	4.1	nan
1	13877	4.1	nan
1	13878	4.1	nan
1	13879	4.1	nan
1	13880	4.1	nan
1	13881	4.1	nan
1	13882	4.1	nan
1	13883	4.1	nan
1	13884	4.1	nan
1	13885	4.1	nan
1	17566	5.1	nan
1	17567	5.1	nan
1	17568	5.1	nan
1	17569	5.1	nan
1	17570	5.1	nan
1	17571	5.1	nan
1	17572	5.1	nan
1	17573	5.1	nan
1	17574	5.1	nan
1	17575	5.1	nan
1	17576	5.1	nan
1	21311	6.1	nan
1	21312	6.1	nan
1	21313	6.1	nan
1	21314	6.1	nan
1	21315	6.1	nan
1	21316	6.1	nan
1	21317	6.1	nan
1	21318	6.1	nan
1	21319	6.1	nan
1	21320	6.1	nan
1	21321	6.1	nan
1	24549	7.1	nan
1	24550	7.1	nan
1	24551	7.1	nan
1	24552	7.1	nan
1	24553	7.1	nan
1	24554	7.1	nan
1	24555	7.1	nan
1	24556	7.1	nan
1	24557	7.1	nan
1	24558	7.1	nan
1	24559	7.1	nan
1	28179	8.1	nan
1	28180	8.1	nan
1	28181	8.1	nan
1	28182	8.1	nan
1	28183	8.1	nan
1	28184	8.1	nan
1	28185	8.1	nan
1	28186	8.1	nan
1	28187	8.1	nan
1	28188	8.1	nan
1	28189	8.1	nan
1	31821	9.1	nan
1	31822	9.1	nan
1	31823	9.1	nan
1	31824	9.1	nan
1	31825	9.1	nan
1	31826	9.1	nan
1	31827	9.1	nan
1	31828	9.1	nan
1	31829	9.1	nan
1	31830	9.1	nan
1	31831	9.1	nan
1	35618	10.1	nan
1	35619	10.1	nan
1	35620	10.1	nan
1	35621	10.1	nan
1	35622	10.1	nan
1	35623	10.1	nan
1	35624	10.1	nan
1	35625	10.1	nan
1	35626	10.1	nan
1	35627	10.1	nan
1	35628	10.1	nan
1	39382	11.1	nan
1	39383	11.1	nan
1	39384	11.1	nan
1	39385	11.1	nan
1	39386	11.1	nan
1	39387	11.1	nan
1	39388	11.1	nan
1	39389	11.1	nan
1	39390	11.1	nan
1	39391	11.1	nan
1	39392	11.1	nan
2	39053	11.03342031478	141
2	39111	11.04726031478	282
2	39250	11.06110031478	423
2	39312	11.07494031478	564
2	39331	11.082512534095	705
2	39350	11.08878031478	846
2	39369	11.096352534095	987
2	39553	11.10262031478	1128
2	39572	11.110192534095	1269
2	39618	11.11646031478	1410
2	39646	11.124032534095	1551
2	39677	11.13030031478	1692
2	39705	11.137872534095	1833
2	39724	11.14414031478	1974
2	39848	11.151712534095	2115
2	39867	11.15798031478	2256
2	39910	11.165552534095	2397
2	39932	11.17182031478	2538
2	39999	11.193232534095	2679
2	40018	11.198426728067	2820
2	40172	11.207072534095	2961
2	40191	11.212266728067	3102
2	40255	11.220912534095	3243
2	40283	11.226106728067	3384
2	40311	11.233626728067	3525
2	40330	11.239946728067	3666
2	40349	11.247466728067	3807
2	40471	11.253786728067	3948
2	40490	11.261306728067	4089
2	40533	11.267626728067	4230
2	40564	11.275146728067	4371
2	40583	11.281466728067	4512
2	40602	11.288986728067	4653
2	40621	11.295306728067	4794
2	40773	11.302826728067	4935
2	40792	11.309146728067	5076
2	40811	11.316666728067	5217
2	40830	11.322986728067	5358
2	40849	11.330506728067	5499
2	40868	11.336826728067	5640
2	40887	11.344346728067	5781
2	41004	11.350666728067	5922
2	41015	11.358186728067	6063
2	41078	11.372026728067	6204
2	41097	11.385866728067	6345
2	41876	11.58342031478	6486
2	42143	11.632512534095	6627
2	42198	11.646352534095	6768
2	42361	11.665982591762	6909
2	42407	11.679822591762	7050
2	42563	11.707502591762	7191
2	42622	11.735182591762	7332
2	42641	11.749022591762	7473
2	42763	11.762862591762	7614
2	42826	11.776702591762	7755
2	42840	11.784095125857	7896
2	42859	11.790542591762	8037
2	43015	11.804382591762	8178
3	39053	11.03342031478	141
3	39111	11.04726031478	282
3	39250	11.06110031478	423
3	39312	11.07494031478	564
3	39331	11.082512534095	705
3	39350	11.08878031478	846
3	39369	11.096352534095	987
3	39553	11.10262031478	1128
3	39572	11.110192534095	1269
3	39618	11.11646031478	1410
3	39646	11.124032534095	1551
3	39677	11.13030031478	1692
3	39705	11.137872534095	1833
3	39724	11.14414031478	1974
3	39848	11.151712534095	2115
3	39867	11.15798031478	2256
3	39910	11.165552534095	2397
3	39932	11.17182031478	2538
3	39999	11.193232534095	2679
3	40018	11.198426728067	2820
3	40172	11.207072534095	2961
3	40191	11.212266728067	3102
3	40255	11.220912534095	3243
3	40283	11.226106728067	3384
3	40311	11.233626728067	3525
3	40330	11.239946728067	3666
3	40349	11.247466728067	3807
3	40471	11.253786728067	3948
3	40490	11.261306728067	4089
3	40533	11.267626728067	4230
3	40564	11.275146728067	4371
3	40583	11.281466728067	4512
3	40602	11.288986728067	4653
3	40621	11.295306728067	4794
3	40773	11.302826728067	4935
3	40792	11.309146728067	5076
3	40811	11.316666728067	5217
3	40830	11.322986728067	5358
3	40849	11.330506728067	5499
3	40868	11.336826728067	5640
3	40887	11.344346728067	5781
3	41004	11.350666728067	5922
3	41015	11.358186728067	6063
3	41078	11.372026728067	6204
3	41097	11.385866728067	6345
3	41876	11.58342031478	6486
3	42143	11.632512534095	6627
3	42198	11.646352534095	6768
3	42361	11.665982591762	6909
3	42407	11.679822591762	7050
3	42563	11.707502591762	7191
3	42622	11.735182591762	7332
3	42641	11.749022591762	7473
3	42763	11.762862591762	7614
3	42826	11.776702591762	7755
3	42840	11.784095125857	7896
3	42859	11.790542591762	8037
3	43015	11.804382591762	8178

