version 2
run B-0-20191104-21:54:54-25967
attr configname B
attr datetime 20191104-21:54:54
attr experiment B
attr inifile GwSimV2.ini
attr iterationvars ""
attr iterationvarsf ""
attr measurement ""
attr network NetworkTormV2
attr processid 25967
attr repetition 0
attr replication #0
attr resultdir results
attr runnumber 0
attr seedset 0
param **.mobility.traceFile "\"AllPaths/mobPaths/B.movements\""
param **.numNodes 11
param **.application.dataGenerationInterval 1s
param **.application.dataSizeInBytes 10
param **.application.ttl 999999s
param **application.nodesThatGen false
param **application.nodesGenMsg "\"\""
param **application.startMultipleMsg false
param **application.numMultipleMsg 100
param **application.hopsListSize 50
param **.application.endGeneratingMsg 99s
param **.routingLayer "\"RoutingLqeGw\""
param **.routing.maximumCacheSize 5000byte
param **.routing.maximumHopCount 25
param **.routing.useTTL false
param **.routing.waitBFsend 0.1
param **.routing.max_age 999999s
param **.routing.gateway_list "\"\""
param **.routing.actual_gateway "\"\""
param **.routing.gwCheckPeriod 5s
param **.neighboring.resetGPeriod 999s
param **.wirelessIfc.wirelessRange 40m
param **.numNodes 2
param **.application.usedRNG 1
param **.application.dataGenerationInterval 1s
param **.application.dataSizeInBytes 10
param **.application.ttl 999999s
param **application.destinationAddr "\"Wf:00:00:00:00:02\""
param **application.destinationBTAddr "\"Bt:00:00:00:00:02\""
param **application.nodesThatGen true
param **application.nodesGenMsg "\"0\""
param **application.startMultipleMsg true
param **application.numMultipleMsg 100
param **application.hopsListSize 50
param **.application.endGeneratingMsg 999999s
param **.routingLayer "\"RoutingLqeGw\""
param **.routing.maximumCacheSize 5000byte
param **.routing.maximumHopCount 25
param **.routing.useTTL false
param **.routing.waitBFsend 0.1
param **.routing.max_age 999999s
param **.routing.gateway_list "\"\""
param **.routing.actual_gateway "\"\""
param **.routing.gwCheckPeriod 5s
param **.neighboring.antiEntropyInterval 500ms
param **.neighboring.maximumRandomBackoffDuration 1s
param **.neighboring.delayPerDataMsg 0.1
param **neighboring.usedRNG 2
param **.neighboring.GWAddr "\"Wf:00:00:00:00:02\""
param **.neighboring.sendWifiFirst true
param **.neighboring.maxLengthGraph 20
param **.neighboring.max_age 999999s
param **.neighboring.max_absent_time 1s
param **.wirelessIfc.wirelessRange 40m
param **.wirelessIfc.neighbourScanInterval 50ms
param **.wirelessIfc.bandwidthBitRate 100000bps
param **.wirelessIfc.wirelessHeaderSize 32byte
param **.wirelessIfc.minSSI -90
param **.wirelessIfc.limitQueueTime 400ms
param **.wirelessIfc.my_limit_rate 0bps
param **.bluetoothIfc.wirelessRange 40m
param **.bluetoothIfc.neighbourScanInterval 100ms
param **.bluetoothIfc.bandwidthBitRate 100000bps
param **.bluetoothIfc.wirelessHeaderSize 16byte
param **.bluetoothIfc.minSSI -90
param **.mobilityType "\"BonnMotionMobility\""
param **.mobility.traceFile "\"paths/Moves2.movements\""
param **.mobility.is3D false
param **.mobility.nodeId -1

vector 0 NetworkTormV2 neighbourhoodSize:vector ETV
attr source neighbourhoodSize
vector 1 NetworkTormV2 deliveryRatio:vector ETV
attr source sum(totalDataBytesReceived)/sum(totalDataBytesReceivableByAllNodes)
vector 2 NetworkTormV2 dataBytesReceivedSum:vector ETV
attr source sum(dataBytesReceived)
vector 3 NetworkTormV2 totalBytesReceivedSum:vector ETV
attr source sum(totalBytesReceived)
0	34	0.05	3
0	35	0.05	5
0	36	0.05	3
0	37	0.05	5
0	38	0.05	8
0	39	0.05	5
0	40	0.05	3
0	41	0.05	5
0	42	0.05	3
0	43	0.05	1
0	44	0.05	1
0	134	0.1	3
0	136	0.1	5
0	138	0.1	3
0	140	0.1	5
0	142	0.1	8
0	144	0.1	5
0	146	0.1	3
0	148	0.1	5
0	150	0.1	3
0	152	0.1	1
0	154	0.1	1
0	156	0.1	3
0	157	0.1	5
0	158	0.1	3
0	159	0.1	5
0	160	0.1	8
0	161	0.1	5
0	162	0.1	3
0	163	0.1	5
0	164	0.1	3
0	165	0.1	1
0	166	0.1	1
0	288	0.15	3
0	289	0.15	5
0	290	0.15	3
0	291	0.15	5
0	292	0.15	8
0	293	0.15	5
0	294	0.15	3
0	295	0.15	5
0	296	0.15	3
0	297	0.15	1
0	298	0.15	1
0	387	0.2	3
0	388	0.2	5
0	389	0.2	3
0	390	0.2	5
0	391	0.2	8
0	392	0.2	5
0	393	0.2	3
0	394	0.2	5
0	395	0.2	3
0	396	0.2	1
0	397	0.2	1
0	399	0.2	3
0	400	0.2	5
0	401	0.2	3
0	402	0.2	5
0	403	0.2	8
0	404	0.2	5
0	405	0.2	3
0	406	0.2	5
0	407	0.2	3
0	408	0.2	1
0	409	0.2	1
0	520	0.25	3
0	521	0.25	5
0	522	0.25	3
0	523	0.25	5
0	524	0.25	8
0	525	0.25	5
0	526	0.25	3
0	527	0.25	5
0	528	0.25	3
0	529	0.25	1
0	530	0.25	1
0	619	0.3	3
0	620	0.3	5
0	621	0.3	3
0	622	0.3	5
0	623	0.3	8
0	624	0.3	5
0	625	0.3	3
0	626	0.3	5
0	627	0.3	3
0	628	0.3	1
0	629	0.3	1
0	631	0.3	3
0	632	0.3	5
0	633	0.3	3
0	634	0.3	5
0	635	0.3	8
0	636	0.3	5
0	637	0.3	3
0	638	0.3	5
0	639	0.3	3
0	640	0.3	1
0	641	0.3	1
0	752	0.35	3
0	753	0.35	5
0	754	0.35	3
0	755	0.35	5
0	756	0.35	8
0	757	0.35	5
0	758	0.35	3
0	759	0.35	5
0	760	0.35	3
0	761	0.35	1
0	762	0.35	1
0	851	0.4	3
0	852	0.4	5
0	853	0.4	3
0	854	0.4	5
0	855	0.4	8
0	856	0.4	5
0	857	0.4	3
0	858	0.4	5
0	859	0.4	3
0	860	0.4	1
0	861	0.4	1
0	863	0.4	3
0	864	0.4	5
0	865	0.4	3
0	866	0.4	5
0	867	0.4	8
0	868	0.4	5
0	869	0.4	3
0	870	0.4	5
0	871	0.4	3
0	872	0.4	1
0	873	0.4	1
0	984	0.45	3
0	985	0.45	5
0	986	0.45	3
0	987	0.45	5
0	988	0.45	8
0	989	0.45	5
0	990	0.45	3
0	991	0.45	5
0	992	0.45	3
0	993	0.45	1
0	994	0.45	1
0	1083	0.5	3
0	1084	0.5	5
0	1085	0.5	3
0	1086	0.5	5
0	1087	0.5	8
0	1088	0.5	5
0	1089	0.5	3
0	1090	0.5	5
0	1091	0.5	3
0	1092	0.5	1
0	1093	0.5	1
0	1095	0.5	3
0	1096	0.5	5
0	1097	0.5	3
0	1098	0.5	5
0	1099	0.5	8
0	1100	0.5	5
0	1101	0.5	3
0	1102	0.5	5
0	1103	0.5	3
0	1104	0.5	1
0	1105	0.5	1
0	1216	0.55	3
0	1217	0.55	5
0	1218	0.55	3
0	1219	0.55	5
0	1220	0.55	8
0	1221	0.55	5
0	1222	0.55	3
0	1223	0.55	5
0	1224	0.55	3
0	1225	0.55	1
0	1226	0.55	1
0	1315	0.6	3
0	1316	0.6	5
0	1317	0.6	3
0	1318	0.6	5
0	1319	0.6	8
0	1320	0.6	5
0	1321	0.6	3
0	1322	0.6	5
0	1323	0.6	3
0	1324	0.6	1
0	1325	0.6	1
0	1327	0.6	3
0	1328	0.6	5
0	1329	0.6	3
0	1330	0.6	5
0	1331	0.6	8
0	1332	0.6	5
0	1333	0.6	3
0	1334	0.6	5
0	1335	0.6	3
0	1336	0.6	1
0	1337	0.6	1
0	1448	0.65	3
0	1449	0.65	5
0	1450	0.65	3
0	1451	0.65	5
0	1452	0.65	8
0	1453	0.65	5
0	1454	0.65	3
0	1455	0.65	5
0	1456	0.65	3
0	1457	0.65	1
0	1458	0.65	1
0	1547	0.7	3
0	1548	0.7	5
0	1549	0.7	3
0	1550	0.7	5
0	1551	0.7	8
0	1552	0.7	5
0	1553	0.7	3
0	1554	0.7	5
0	1555	0.7	3
0	1556	0.7	1
0	1557	0.7	1
0	1559	0.7	3
0	1560	0.7	5
0	1561	0.7	3
0	1562	0.7	5
0	1563	0.7	8
0	1564	0.7	5
0	1565	0.7	3
0	1566	0.7	5
0	1567	0.7	3
0	1568	0.7	1
0	1569	0.7	1
0	1680	0.75	3
0	1681	0.75	5
0	1682	0.75	3
0	1683	0.75	5
0	1684	0.75	8
0	1685	0.75	5
0	1686	0.75	3
0	1687	0.75	5
0	1688	0.75	3
0	1689	0.75	1
0	1690	0.75	1
0	1779	0.8	3
0	1780	0.8	5
0	1781	0.8	3
0	1782	0.8	5
0	1783	0.8	8
0	1784	0.8	5
0	1785	0.8	3
0	1786	0.8	5
0	1787	0.8	3
0	1788	0.8	1
0	1789	0.8	1
0	1791	0.8	3
0	1792	0.8	5
0	1793	0.8	3
0	1794	0.8	5
0	1795	0.8	8
0	1796	0.8	5
0	1797	0.8	3
0	1798	0.8	5
0	1799	0.8	3
0	1800	0.8	1
0	1801	0.8	1
0	1912	0.85	3
0	1913	0.85	5
0	1914	0.85	3
0	1915	0.85	5
0	1916	0.85	8
0	1917	0.85	5
0	1918	0.85	3
0	1919	0.85	5
0	1920	0.85	3
0	1921	0.85	1
0	1922	0.85	1
0	2011	0.9	3
0	2012	0.9	5
0	2013	0.9	3
0	2014	0.9	5
0	2015	0.9	8
0	2016	0.9	5
0	2017	0.9	3
0	2018	0.9	5
0	2019	0.9	3
0	2020	0.9	1
0	2021	0.9	1
0	2023	0.9	3
0	2024	0.9	5
0	2025	0.9	3
0	2026	0.9	5
0	2027	0.9	8
0	2028	0.9	5
0	2029	0.9	3
0	2030	0.9	5
0	2031	0.9	3
0	2032	0.9	1
0	2033	0.9	1
0	2144	0.95	3
0	2145	0.95	5
0	2146	0.95	3
0	2147	0.95	5
0	2148	0.95	8
0	2149	0.95	5
0	2150	0.95	3
0	2151	0.95	5
0	2152	0.95	3
0	2153	0.95	1
0	2154	0.95	1
0	2243	1	3
0	2244	1	5
0	2245	1	3
0	2246	1	5
0	2247	1	8
0	2248	1	5
0	2249	1	3
0	2250	1	5
0	2251	1	3
0	2252	1	1
0	2253	1	1
0	2255	1	3
0	2256	1	5
0	2257	1	3
0	2258	1	5
0	2259	1	8
0	2260	1	5
0	2261	1	3
0	2262	1	5
0	2263	1	3
0	2264	1	1
0	2265	1	1
0	2376	1.05	3
0	2377	1.05	5
0	2378	1.05	3
0	2379	1.05	5
0	2380	1.05	8
0	2381	1.05	5
0	2382	1.05	3
0	2383	1.05	5
0	2384	1.05	3
0	2385	1.05	1
0	2386	1.05	1
0	2486	1.1	3
0	2487	1.1	5
0	2488	1.1	3
0	2489	1.1	5
0	2490	1.1	8
0	2491	1.1	5
0	2492	1.1	3
0	2493	1.1	5
0	2494	1.1	3
0	2495	1.1	1
0	2496	1.1	1
0	2498	1.1	3
0	2499	1.1	5
0	2500	1.1	3
0	2501	1.1	5
0	2502	1.1	8
0	2503	1.1	5
0	2504	1.1	3
0	2505	1.1	5
0	2506	1.1	3
0	2507	1.1	1
0	2508	1.1	1
0	3080	1.15	3
0	3081	1.15	5
0	3082	1.15	3
0	3083	1.15	5
0	3084	1.15	8
0	3085	1.15	5
0	3086	1.15	3
0	3087	1.15	5
0	3088	1.15	3
0	3089	1.15	1
0	3090	1.15	1
0	3497	1.2	3
0	3498	1.2	5
0	3499	1.2	3
0	3500	1.2	5
0	3501	1.2	8
0	3502	1.2	5
0	3503	1.2	3
0	3504	1.2	5
0	3505	1.2	3
0	3506	1.2	1
0	3507	1.2	1
0	3509	1.2	3
0	3510	1.2	5
0	3511	1.2	3
0	3512	1.2	5
0	3513	1.2	8
0	3514	1.2	5
0	3515	1.2	3
0	3516	1.2	5
0	3517	1.2	3
0	3518	1.2	1
0	3519	1.2	1
0	3714	1.25	3
0	3715	1.25	5
0	3716	1.25	3
0	3717	1.25	5
0	3718	1.25	8
0	3719	1.25	5
0	3720	1.25	3
0	3721	1.25	5
0	3722	1.25	3
0	3723	1.25	1
0	3724	1.25	1
0	3831	1.3	3
0	3832	1.3	5
0	3833	1.3	3
0	3834	1.3	5
0	3835	1.3	8
0	3836	1.3	5
0	3837	1.3	3
0	3838	1.3	5
0	3839	1.3	3
0	3840	1.3	1
0	3841	1.3	1
0	3843	1.3	3
0	3844	1.3	5
0	3845	1.3	3
0	3846	1.3	5
0	3847	1.3	8
0	3848	1.3	5
0	3849	1.3	3
0	3850	1.3	5
0	3851	1.3	3
0	3852	1.3	1
0	3853	1.3	1
0	3964	1.35	3
0	3965	1.35	5
0	3966	1.35	3
0	3967	1.35	5
0	3968	1.35	8
0	3969	1.35	5
0	3970	1.35	3
0	3971	1.35	5
0	3972	1.35	3
0	3973	1.35	1
0	3974	1.35	1
0	4063	1.4	3
0	4064	1.4	5
0	4065	1.4	3
0	4066	1.4	5
0	4067	1.4	8
0	4068	1.4	5
0	4069	1.4	3
0	4070	1.4	5
0	4071	1.4	3
0	4072	1.4	1
0	4073	1.4	1
0	4075	1.4	3
0	4076	1.4	5
0	4077	1.4	3
0	4078	1.4	5
0	4079	1.4	8
0	4080	1.4	5
0	4081	1.4	3
0	4082	1.4	5
0	4083	1.4	3
0	4084	1.4	1
0	4085	1.4	1
0	4196	1.45	3
0	4197	1.45	5
0	4198	1.45	3
0	4199	1.45	5
0	4200	1.45	8
0	4201	1.45	5
0	4202	1.45	3
0	4203	1.45	5
0	4204	1.45	3
0	4205	1.45	1
0	4206	1.45	1
0	4295	1.5	3
0	4296	1.5	5
0	4297	1.5	3
0	4298	1.5	5
0	4299	1.5	8
0	4300	1.5	5
0	4301	1.5	3
0	4302	1.5	5
0	4303	1.5	3
0	4304	1.5	1
0	4305	1.5	1
0	4307	1.5	3
0	4308	1.5	5
0	4309	1.5	3
0	4310	1.5	5
0	4311	1.5	8
0	4312	1.5	5
0	4313	1.5	3
0	4314	1.5	5
0	4315	1.5	3
0	4316	1.5	1
0	4317	1.5	1
0	4428	1.55	3
0	4429	1.55	5
0	4430	1.55	3
0	4431	1.55	5
0	4432	1.55	8
0	4433	1.55	5
0	4434	1.55	3
0	4435	1.55	5
0	4436	1.55	3
0	4437	1.55	1
0	4438	1.55	1
0	4527	1.6	3
0	4528	1.6	5
0	4529	1.6	3
0	4530	1.6	5
0	4531	1.6	8
0	4532	1.6	5
0	4533	1.6	3
0	4534	1.6	5
0	4535	1.6	3
0	4536	1.6	1
0	4537	1.6	1
0	4539	1.6	3
0	4540	1.6	5
0	4541	1.6	3
0	4542	1.6	5
0	4543	1.6	8
0	4544	1.6	5
0	4545	1.6	3
0	4546	1.6	5
0	4547	1.6	3
0	4548	1.6	1
0	4549	1.6	1
0	4660	1.65	3
0	4661	1.65	5
0	4662	1.65	3
0	4663	1.65	5
0	4664	1.65	8
0	4665	1.65	5
0	4666	1.65	3
0	4667	1.65	5
0	4668	1.65	3
0	4669	1.65	1
0	4670	1.65	1
0	5177	1.7	3
0	5178	1.7	5
0	5179	1.7	3
0	5180	1.7	5
0	5181	1.7	8
0	5182	1.7	5
0	5183	1.7	3
0	5184	1.7	5
0	5185	1.7	3
0	5186	1.7	1
0	5187	1.7	1
0	5189	1.7	3
0	5190	1.7	5
0	5191	1.7	3
0	5192	1.7	5
0	5193	1.7	8
0	5194	1.7	5
0	5195	1.7	3
0	5196	1.7	5
0	5197	1.7	3
0	5198	1.7	1
0	5199	1.7	1
0	5568	1.75	3
0	5569	1.75	5
0	5570	1.75	3
0	5571	1.75	5
0	5572	1.75	8
0	5573	1.75	5
0	5574	1.75	3
0	5575	1.75	5
0	5576	1.75	3
0	5577	1.75	1
0	5578	1.75	1
0	5763	1.8	3
0	5764	1.8	5
0	5765	1.8	3
0	5766	1.8	5
0	5767	1.8	8
0	5768	1.8	5
0	5769	1.8	3
0	5770	1.8	5
0	5771	1.8	3
0	5772	1.8	1
0	5773	1.8	1
0	5775	1.8	3
0	5776	1.8	5
0	5777	1.8	3
0	5778	1.8	5
0	5779	1.8	8
0	5780	1.8	5
0	5781	1.8	3
0	5782	1.8	5
0	5783	1.8	3
0	5784	1.8	1
0	5785	1.8	1
0	5896	1.85	3
0	5897	1.85	5
0	5898	1.85	3
0	5899	1.85	5
0	5900	1.85	8
0	5901	1.85	5
0	5902	1.85	3
0	5903	1.85	5
0	5904	1.85	3
0	5905	1.85	1
0	5906	1.85	1
0	6000	1.9	3
0	6001	1.9	5
0	6002	1.9	3
0	6003	1.9	5
0	6004	1.9	8
0	6005	1.9	5
0	6006	1.9	3
0	6007	1.9	5
0	6008	1.9	3
0	6009	1.9	1
0	6010	1.9	1
0	6012	1.9	3
0	6013	1.9	5
0	6014	1.9	3
0	6015	1.9	5
0	6016	1.9	8
0	6017	1.9	5
0	6018	1.9	3
0	6019	1.9	5
0	6020	1.9	3
0	6021	1.9	1
0	6022	1.9	1
0	6133	1.95	3
0	6134	1.95	5
0	6135	1.95	3
0	6136	1.95	5
0	6137	1.95	8
0	6138	1.95	5
0	6139	1.95	3
0	6140	1.95	5
0	6141	1.95	3
0	6142	1.95	1
0	6143	1.95	1
0	6232	2	3
0	6233	2	5
0	6234	2	3
0	6235	2	5
0	6236	2	8
0	6237	2	5
0	6238	2	3
0	6239	2	5
0	6240	2	3
0	6241	2	1
0	6242	2	1
0	6244	2	3
0	6245	2	5
0	6246	2	3
0	6247	2	5
0	6248	2	8
0	6249	2	5
0	6250	2	3
0	6251	2	5
0	6252	2	3
0	6253	2	1
0	6254	2	1
0	6365	2.05	3
0	6366	2.05	5
0	6367	2.05	3
0	6368	2.05	5
0	6369	2.05	8
0	6370	2.05	5
0	6371	2.05	3
0	6372	2.05	5
0	6373	2.05	3
0	6374	2.05	1
0	6375	2.05	1
0	6475	2.1	3
0	6476	2.1	5
0	6477	2.1	3
0	6478	2.1	5
0	6479	2.1	8
0	6480	2.1	5
0	6481	2.1	3
0	6482	2.1	5
0	6483	2.1	3
0	6484	2.1	1
0	6485	2.1	1
0	6487	2.1	3
0	6488	2.1	5
0	6489	2.1	3
0	6490	2.1	5
0	6491	2.1	8
0	6492	2.1	5
0	6493	2.1	3
0	6494	2.1	5
0	6495	2.1	3
0	6496	2.1	1
0	6497	2.1	1
0	6619	2.15	3
0	6620	2.15	5
0	6621	2.15	3
0	6622	2.15	5
0	6623	2.15	8
0	6624	2.15	5
0	6625	2.15	3
0	6626	2.15	5
0	6627	2.15	3
0	6628	2.15	1
0	6629	2.15	1
0	6718	2.2	3
0	6719	2.2	5
0	6720	2.2	3
0	6721	2.2	5
0	6722	2.2	8
0	6723	2.2	5
0	6724	2.2	3
0	6725	2.2	5
0	6726	2.2	3
0	6727	2.2	1
0	6728	2.2	1
0	6730	2.2	3
0	6731	2.2	5
0	6732	2.2	3
0	6733	2.2	5
0	6734	2.2	8
0	6735	2.2	5
0	6736	2.2	3
0	6737	2.2	5
0	6738	2.2	3
0	6739	2.2	1
0	6740	2.2	1
0	7286	2.25	3
0	7287	2.25	5
0	7288	2.25	3
0	7289	2.25	5
0	7290	2.25	8
0	7291	2.25	5
0	7292	2.25	3
0	7293	2.25	5
0	7294	2.25	3
0	7295	2.25	1
0	7296	2.25	1
0	7616	2.3	3
0	7617	2.3	5
0	7618	2.3	3
0	7619	2.3	5
0	7620	2.3	8
0	7621	2.3	5
0	7622	2.3	3
0	7623	2.3	5
0	7624	2.3	3
0	7625	2.3	1
0	7626	2.3	1
0	7628	2.3	3
0	7629	2.3	5
0	7630	2.3	3
0	7631	2.3	5
0	7632	2.3	8
0	7633	2.3	5
0	7634	2.3	3
0	7635	2.3	5
0	7636	2.3	3
0	7637	2.3	1
0	7638	2.3	1
0	7770	2.35	3
0	7771	2.35	5
0	7772	2.35	3
0	7773	2.35	5
0	7774	2.35	8
0	7775	2.35	5
0	7776	2.35	3
0	7777	2.35	5
0	7778	2.35	3
0	7779	2.35	1
0	7780	2.35	1
0	7926	2.4	3
0	7927	2.4	5
0	7928	2.4	3
0	7929	2.4	5
0	7930	2.4	8
0	7931	2.4	5
0	7932	2.4	3
0	7933	2.4	5
0	7934	2.4	3
0	7935	2.4	1
0	7936	2.4	1
0	7938	2.4	3
0	7939	2.4	5
0	7940	2.4	3
0	7941	2.4	5
0	7942	2.4	8
0	7943	2.4	5
0	7944	2.4	3
0	7945	2.4	5
0	7946	2.4	3
0	7947	2.4	1
0	7948	2.4	1
0	8059	2.45	3
0	8060	2.45	5
0	8061	2.45	3
0	8062	2.45	5
0	8063	2.45	8
0	8064	2.45	5
0	8065	2.45	3
0	8066	2.45	5
0	8067	2.45	3
0	8068	2.45	1
0	8069	2.45	1
0	8158	2.5	3
0	8159	2.5	5
0	8160	2.5	3
0	8161	2.5	5
0	8162	2.5	8
0	8163	2.5	5
0	8164	2.5	3
0	8165	2.5	5
0	8166	2.5	3
0	8167	2.5	1
0	8168	2.5	1
0	8170	2.5	3
0	8171	2.5	5
0	8172	2.5	3
0	8173	2.5	5
0	8174	2.5	8
0	8175	2.5	5
0	8176	2.5	3
0	8177	2.5	5
0	8178	2.5	3
0	8179	2.5	1
0	8180	2.5	1
0	8291	2.55	3
0	8292	2.55	5
0	8293	2.55	3
0	8294	2.55	5
0	8295	2.55	8
0	8296	2.55	5
0	8297	2.55	3
0	8298	2.55	5
0	8299	2.55	3
0	8300	2.55	1
0	8301	2.55	1
0	8390	2.6	3
0	8391	2.6	5
0	8392	2.6	3
0	8393	2.6	5
0	8394	2.6	8
0	8395	2.6	5
0	8396	2.6	3
0	8397	2.6	5
0	8398	2.6	3
0	8399	2.6	1
0	8400	2.6	1
0	8402	2.6	3
0	8403	2.6	5
0	8404	2.6	3
0	8405	2.6	5
0	8406	2.6	8
0	8407	2.6	5
0	8408	2.6	3
0	8409	2.6	5
0	8410	2.6	3
0	8411	2.6	1
0	8412	2.6	1
0	8523	2.65	3
0	8524	2.65	5
0	8525	2.65	3
0	8526	2.65	5
0	8527	2.65	8
0	8528	2.65	5
0	8529	2.65	3
0	8530	2.65	5
0	8531	2.65	3
0	8532	2.65	1
0	8533	2.65	1
0	8622	2.7	3
0	8623	2.7	5
0	8624	2.7	3
0	8625	2.7	5
0	8626	2.7	8
0	8627	2.7	5
0	8628	2.7	3
0	8629	2.7	5
0	8630	2.7	3
0	8631	2.7	1
0	8632	2.7	1
0	8634	2.7	3
0	8635	2.7	5
0	8636	2.7	3
0	8637	2.7	5
0	8638	2.7	8
0	8639	2.7	5
0	8640	2.7	3
0	8641	2.7	5
0	8642	2.7	3
0	8643	2.7	1
0	8644	2.7	1
0	8818	2.75	3
0	8819	2.75	5
0	8820	2.75	3
0	8821	2.75	5
0	8822	2.75	8
0	8823	2.75	5
0	8824	2.75	3
0	8825	2.75	5
0	8826	2.75	3
0	8827	2.75	1
0	8828	2.75	1
0	9334	2.8	3
0	9335	2.8	5
0	9336	2.8	3
0	9337	2.8	5
0	9338	2.8	8
0	9339	2.8	5
0	9340	2.8	3
0	9341	2.8	5
0	9342	2.8	3
0	9343	2.8	1
0	9344	2.8	1
0	9346	2.8	3
0	9347	2.8	5
0	9348	2.8	3
0	9349	2.8	5
0	9350	2.8	8
0	9351	2.8	5
0	9352	2.8	3
0	9353	2.8	5
0	9354	2.8	3
0	9355	2.8	1
0	9356	2.8	1
0	9692	2.85	3
0	9693	2.85	5
0	9694	2.85	3
0	9695	2.85	5
0	9696	2.85	8
0	9697	2.85	5
0	9698	2.85	3
0	9699	2.85	5
0	9700	2.85	3
0	9701	2.85	1
0	9702	2.85	1
0	9796	2.9	3
0	9797	2.9	5
0	9798	2.9	3
0	9799	2.9	5
0	9800	2.9	8
0	9801	2.9	5
0	9802	2.9	3
0	9803	2.9	5
0	9804	2.9	3
0	9805	2.9	1
0	9806	2.9	1
0	9808	2.9	3
0	9809	2.9	5
0	9810	2.9	3
0	9811	2.9	5
0	9812	2.9	8
0	9813	2.9	5
0	9814	2.9	3
0	9815	2.9	5
0	9816	2.9	3
0	9817	2.9	1
0	9818	2.9	1
0	9967	2.95	3
0	9968	2.95	5
0	9969	2.95	3
0	9970	2.95	5
0	9971	2.95	8
0	9972	2.95	5
0	9973	2.95	3
0	9974	2.95	5
0	9975	2.95	3
0	9976	2.95	1
0	9977	2.95	1
0	10066	3	3
0	10067	3	5
0	10068	3	3
0	10069	3	5
0	10070	3	8
0	10071	3	5
0	10072	3	3
0	10073	3	5
0	10074	3	3
0	10075	3	1
0	10076	3	1
0	10078	3	3
0	10079	3	5
0	10080	3	3
0	10081	3	5
0	10082	3	8
0	10083	3	5
0	10084	3	3
0	10085	3	5
0	10086	3	3
0	10087	3	1
0	10088	3	1
0	10199	3.05	3
0	10200	3.05	5
0	10201	3.05	3
0	10202	3.05	5
0	10203	3.05	8
0	10204	3.05	5
0	10205	3.05	3
0	10206	3.05	5
0	10207	3.05	3
0	10208	3.05	1
0	10209	3.05	1
0	10309	3.1	3
0	10310	3.1	5
0	10311	3.1	3
0	10312	3.1	5
0	10313	3.1	8
0	10314	3.1	5
0	10315	3.1	3
0	10316	3.1	5
0	10317	3.1	3
0	10318	3.1	1
0	10319	3.1	1
0	10321	3.1	3
0	10322	3.1	5
0	10323	3.1	3
0	10324	3.1	5
0	10325	3.1	8
0	10326	3.1	5
0	10327	3.1	3
0	10328	3.1	5
0	10329	3.1	3
0	10330	3.1	1
0	10331	3.1	1
0	10453	3.15	3
0	10454	3.15	5
0	10455	3.15	3
0	10456	3.15	5
0	10457	3.15	8
0	10458	3.15	5
0	10459	3.15	3
0	10460	3.15	5
0	10461	3.15	3
0	10462	3.15	1
0	10463	3.15	1
0	10552	3.2	3
0	10553	3.2	5
0	10554	3.2	3
0	10555	3.2	5
0	10556	3.2	8
0	10557	3.2	5
0	10558	3.2	3
0	10559	3.2	5
0	10560	3.2	3
0	10561	3.2	1
0	10562	3.2	1
0	10564	3.2	3
0	10565	3.2	5
0	10566	3.2	3
0	10567	3.2	5
0	10568	3.2	8
0	10569	3.2	5
0	10570	3.2	3
0	10571	3.2	5
0	10572	3.2	3
0	10573	3.2	1
0	10574	3.2	1
0	10685	3.25	3
0	10686	3.25	5
0	10687	3.25	3
0	10688	3.25	5
0	10689	3.25	8
0	10690	3.25	5
0	10691	3.25	3
0	10692	3.25	5
0	10693	3.25	3
0	10694	3.25	1
0	10695	3.25	1
0	10829	3.3	3
0	10830	3.3	5
0	10831	3.3	3
0	10832	3.3	5
0	10833	3.3	8
0	10834	3.3	5
0	10835	3.3	3
0	10836	3.3	5
0	10837	3.3	3
0	10838	3.3	1
0	10839	3.3	1
0	10841	3.3	3
0	10842	3.3	5
0	10843	3.3	3
0	10844	3.3	5
0	10845	3.3	8
0	10846	3.3	5
0	10847	3.3	3
0	10848	3.3	5
0	10849	3.3	3
0	10850	3.3	1
0	10851	3.3	1
0	11417	3.35	3
0	11418	3.35	5
0	11419	3.35	3
0	11420	3.35	5
0	11421	3.35	8
0	11422	3.35	5
0	11423	3.35	3
0	11424	3.35	5
0	11425	3.35	3
0	11426	3.35	1
0	11427	3.35	1
0	11624	3.4	3
0	11625	3.4	5
0	11626	3.4	3
0	11627	3.4	5
0	11628	3.4	8
0	11629	3.4	5
0	11630	3.4	3
0	11631	3.4	5
0	11632	3.4	3
0	11633	3.4	1
0	11634	3.4	1
0	11636	3.4	3
0	11637	3.4	5
0	11638	3.4	3
0	11639	3.4	5
0	11640	3.4	8
0	11641	3.4	5
0	11642	3.4	3
0	11643	3.4	5
0	11644	3.4	3
0	11645	3.4	1
0	11646	3.4	1
0	11780	3.45	3
0	11781	3.45	5
0	11782	3.45	3
0	11783	3.45	5
0	11784	3.45	8
0	11785	3.45	5
0	11786	3.45	3
0	11787	3.45	5
0	11788	3.45	3
0	11789	3.45	1
0	11790	3.45	1
0	11948	3.5	3
0	11949	3.5	5
0	11950	3.5	3
0	11951	3.5	5
0	11952	3.5	8
0	11953	3.5	5
0	11954	3.5	3
0	11955	3.5	5
0	11956	3.5	3
0	11957	3.5	1
0	11958	3.5	1
0	11960	3.5	3
0	11961	3.5	5
0	11962	3.5	3
0	11963	3.5	5
0	11964	3.5	8
0	11965	3.5	5
0	11966	3.5	3
0	11967	3.5	5
0	11968	3.5	3
0	11969	3.5	1
0	11970	3.5	1
0	12081	3.55	3
0	12082	3.55	5
0	12083	3.55	3
0	12084	3.55	5
0	12085	3.55	8
0	12086	3.55	5
0	12087	3.55	3
0	12088	3.55	5
0	12089	3.55	3
0	12090	3.55	1
0	12091	3.55	1
0	12180	3.6	3
0	12181	3.6	5
0	12182	3.6	3
0	12183	3.6	5
0	12184	3.6	8
0	12185	3.6	5
0	12186	3.6	3
0	12187	3.6	5
0	12188	3.6	3
0	12189	3.6	1
0	12190	3.6	1
0	12192	3.6	3
0	12193	3.6	5
0	12194	3.6	3
0	12195	3.6	5
0	12196	3.6	8
0	12197	3.6	5
0	12198	3.6	3
0	12199	3.6	5
0	12200	3.6	3
0	12201	3.6	1
0	12202	3.6	1
0	12313	3.65	3
0	12314	3.65	5
0	12315	3.65	3
0	12316	3.65	5
0	12317	3.65	8
0	12318	3.65	5
0	12319	3.65	3
0	12320	3.65	5
0	12321	3.65	3
0	12322	3.65	1
0	12323	3.65	1
0	12412	3.7	3
0	12413	3.7	5
0	12414	3.7	3
0	12415	3.7	5
0	12416	3.7	8
0	12417	3.7	5
0	12418	3.7	3
0	12419	3.7	5
0	12420	3.7	3
0	12421	3.7	1
0	12422	3.7	1
0	12424	3.7	3
0	12425	3.7	5
0	12426	3.7	3
0	12427	3.7	5
0	12428	3.7	8
0	12429	3.7	5
0	12430	3.7	3
0	12431	3.7	5
0	12432	3.7	3
0	12433	3.7	1
0	12434	3.7	1
0	12545	3.75	3
0	12546	3.75	5
0	12547	3.75	3
0	12548	3.75	5
0	12549	3.75	8
0	12550	3.75	5
0	12551	3.75	3
0	12552	3.75	5
0	12553	3.75	3
0	12554	3.75	1
0	12555	3.75	1
0	12644	3.8	3
0	12645	3.8	5
0	12646	3.8	3
0	12647	3.8	5
0	12648	3.8	8
0	12649	3.8	5
0	12650	3.8	3
0	12651	3.8	5
0	12652	3.8	3
0	12653	3.8	1
0	12654	3.8	1
0	12656	3.8	3
0	12657	3.8	5
0	12658	3.8	3
0	12659	3.8	5
0	12660	3.8	8
0	12661	3.8	5
0	12662	3.8	3
0	12663	3.8	5
0	12664	3.8	3
0	12665	3.8	1
0	12666	3.8	1
0	12827	3.85	3
0	12828	3.85	5
0	12829	3.85	3
0	12830	3.85	5
0	12831	3.85	8
0	12832	3.85	5
0	12833	3.85	3
0	12834	3.85	5
0	12835	3.85	3
0	12836	3.85	1
0	12837	3.85	1
0	13378	3.9	3
0	13379	3.9	5
0	13380	3.9	3
0	13381	3.9	5
0	13382	3.9	8
0	13383	3.9	5
0	13384	3.9	3
0	13385	3.9	5
0	13386	3.9	3
0	13387	3.9	1
0	13388	3.9	1
0	13390	3.9	3
0	13391	3.9	5
0	13392	3.9	3
0	13393	3.9	5
0	13394	3.9	8
0	13395	3.9	5
0	13396	3.9	3
0	13397	3.9	5
0	13398	3.9	3
0	13399	3.9	1
0	13400	3.9	1
0	13610	3.95	3
0	13611	3.95	5
0	13612	3.95	3
0	13613	3.95	5
0	13614	3.95	8
0	13615	3.95	5
0	13616	3.95	3
0	13617	3.95	5
0	13618	3.95	3
0	13619	3.95	1
0	13620	3.95	1
0	13732	4	3
0	13733	4	5
0	13734	4	3
0	13735	4	5
0	13736	4	8
0	13737	4	5
0	13738	4	3
0	13739	4	5
0	13740	4	3
0	13741	4	1
0	13742	4	1
0	13744	4	3
0	13745	4	5
0	13746	4	3
0	13747	4	5
0	13748	4	8
0	13749	4	5
0	13750	4	3
0	13751	4	5
0	13752	4	3
0	13753	4	1
0	13754	4	1
0	13916	4.05	3
0	13917	4.05	5
0	13918	4.05	3
0	13919	4.05	5
0	13920	4.05	8
0	13921	4.05	5
0	13922	4.05	3
0	13923	4.05	5
0	13924	4.05	3
0	13925	4.05	1
0	13926	4.05	1
0	14026	4.1	3
0	14027	4.1	5
0	14028	4.1	3
0	14029	4.1	5
0	14030	4.1	8
0	14031	4.1	5
0	14032	4.1	3
0	14033	4.1	5
0	14034	4.1	3
0	14035	4.1	1
0	14036	4.1	1
0	14038	4.1	3
0	14039	4.1	5
0	14040	4.1	3
0	14041	4.1	5
0	14042	4.1	8
0	14043	4.1	5
0	14044	4.1	3
0	14045	4.1	5
0	14046	4.1	3
0	14047	4.1	1
0	14048	4.1	1
0	14170	4.15	3
0	14171	4.15	5
0	14172	4.15	3
0	14173	4.15	5
0	14174	4.15	8
0	14175	4.15	5
0	14176	4.15	3
0	14177	4.15	5
0	14178	4.15	3
0	14179	4.15	1
0	14180	4.15	1
0	14269	4.2	3
0	14270	4.2	5
0	14271	4.2	3
0	14272	4.2	5
0	14273	4.2	8
0	14274	4.2	5
0	14275	4.2	3
0	14276	4.2	5
0	14277	4.2	3
0	14278	4.2	1
0	14279	4.2	1
0	14281	4.2	3
0	14282	4.2	5
0	14283	4.2	3
0	14284	4.2	5
0	14285	4.2	8
0	14286	4.2	5
0	14287	4.2	3
0	14288	4.2	5
0	14289	4.2	3
0	14290	4.2	1
0	14291	4.2	1
0	14402	4.25	3
0	14403	4.25	5
0	14404	4.25	3
0	14405	4.25	5
0	14406	4.25	8
0	14407	4.25	5
0	14408	4.25	3
0	14409	4.25	5
0	14410	4.25	3
0	14411	4.25	1
0	14412	4.25	1
0	14501	4.3	3
0	14502	4.3	5
0	14503	4.3	3
0	14504	4.3	5
0	14505	4.3	8
0	14506	4.3	5
0	14507	4.3	3
0	14508	4.3	5
0	14509	4.3	3
0	14510	4.3	1
0	14511	4.3	1
0	14513	4.3	3
0	14514	4.3	5
0	14515	4.3	3
0	14516	4.3	5
0	14517	4.3	8
0	14518	4.3	5
0	14519	4.3	3
0	14520	4.3	5
0	14521	4.3	3
0	14522	4.3	1
0	14523	4.3	1
0	14657	4.35	3
0	14658	4.35	5
0	14659	4.35	3
0	14660	4.35	5
0	14661	4.35	8
0	14662	4.35	5
0	14663	4.35	3
0	14664	4.35	5
0	14665	4.35	3
0	14666	4.35	1
0	14667	4.35	1
0	14841	4.4	3
0	14842	4.4	5
0	14843	4.4	3
0	14844	4.4	5
0	14845	4.4	8
0	14846	4.4	5
0	14847	4.4	3
0	14848	4.4	5
0	14849	4.4	3
0	14850	4.4	1
0	14851	4.4	1
0	14853	4.4	3
0	14854	4.4	5
0	14855	4.4	3
0	14856	4.4	5
0	14857	4.4	8
0	14858	4.4	5
0	14859	4.4	3
0	14860	4.4	5
0	14861	4.4	3
0	14862	4.4	1
0	14863	4.4	1
0	15380	4.45	3
0	15381	4.45	5
0	15382	4.45	3
0	15383	4.45	5
0	15384	4.45	8
0	15385	4.45	5
0	15386	4.45	3
0	15387	4.45	5
0	15388	4.45	3
0	15389	4.45	1
0	15390	4.45	1
0	15582	4.5	3
0	15583	4.5	5
0	15584	4.5	3
0	15585	4.5	5
0	15586	4.5	8
0	15587	4.5	5
0	15588	4.5	3
0	15589	4.5	5
0	15590	4.5	3
0	15591	4.5	1
0	15592	4.5	1
0	15594	4.5	3
0	15595	4.5	5
0	15596	4.5	3
0	15597	4.5	5
0	15598	4.5	8
0	15599	4.5	5
0	15600	4.5	3
0	15601	4.5	5
0	15602	4.5	3
0	15603	4.5	1
0	15604	4.5	1
0	15807	4.55	3
0	15808	4.55	5
0	15809	4.55	3
0	15810	4.55	5
0	15811	4.55	8
0	15812	4.55	5
0	15813	4.55	3
0	15814	4.55	5
0	15815	4.55	3
0	15816	4.55	1
0	15817	4.55	1
0	15957	4.6	3
0	15958	4.6	5
0	15959	4.6	3
0	15960	4.6	5
0	15961	4.6	8
0	15962	4.6	5
0	15963	4.6	3
0	15964	4.6	5
0	15965	4.6	3
0	15966	4.6	1
0	15967	4.6	1
0	15969	4.6	3
0	15970	4.6	5
0	15971	4.6	3
0	15972	4.6	5
0	15973	4.6	8
0	15974	4.6	5
0	15975	4.6	3
0	15976	4.6	5
0	15977	4.6	3
0	15978	4.6	1
0	15979	4.6	1
0	16090	4.65	3
0	16091	4.65	5
0	16092	4.65	3
0	16093	4.65	5
0	16094	4.65	8
0	16095	4.65	5
0	16096	4.65	3
0	16097	4.65	5
0	16098	4.65	3
0	16099	4.65	1
0	16100	4.65	1
0	16189	4.7	3
0	16190	4.7	5
0	16191	4.7	3
0	16192	4.7	5
0	16193	4.7	8
0	16194	4.7	5
0	16195	4.7	3
0	16196	4.7	5
0	16197	4.7	3
0	16198	4.7	1
0	16199	4.7	1
0	16201	4.7	3
0	16202	4.7	5
0	16203	4.7	3
0	16204	4.7	5
0	16205	4.7	8
0	16206	4.7	5
0	16207	4.7	3
0	16208	4.7	5
0	16209	4.7	3
0	16210	4.7	1
0	16211	4.7	1
0	16322	4.75	3
0	16323	4.75	5
0	16324	4.75	3
0	16325	4.75	5
0	16326	4.75	8
0	16327	4.75	5
0	16328	4.75	3
0	16329	4.75	5
0	16330	4.75	3
0	16331	4.75	1
0	16332	4.75	1
0	16421	4.8	3
0	16422	4.8	5
0	16423	4.8	3
0	16424	4.8	5
0	16425	4.8	8
0	16426	4.8	5
0	16427	4.8	3
0	16428	4.8	5
0	16429	4.8	3
0	16430	4.8	1
0	16431	4.8	1
0	16433	4.8	3
0	16434	4.8	5
0	16435	4.8	3
0	16436	4.8	5
0	16437	4.8	8
0	16438	4.8	5
0	16439	4.8	3
0	16440	4.8	5
0	16441	4.8	3
0	16442	4.8	1
0	16443	4.8	1
0	16554	4.85	3
0	16555	4.85	5
0	16556	4.85	3
0	16557	4.85	5
0	16558	4.85	8
0	16559	4.85	5
0	16560	4.85	3
0	16561	4.85	5
0	16562	4.85	3
0	16563	4.85	1
0	16564	4.85	1
0	16663	4.9	3
0	16664	4.9	5
0	16665	4.9	3
0	16666	4.9	5
0	16667	4.9	8
0	16668	4.9	5
0	16669	4.9	3
0	16670	4.9	5
0	16671	4.9	3
0	16672	4.9	1
0	16673	4.9	1
0	16675	4.9	3
0	16676	4.9	5
0	16677	4.9	3
0	16678	4.9	5
0	16679	4.9	8
0	16680	4.9	5
0	16681	4.9	3
0	16682	4.9	5
0	16683	4.9	3
0	16684	4.9	1
0	16685	4.9	1
0	16882	4.95	3
0	16883	4.95	5
0	16884	4.95	3
0	16885	4.95	5
0	16886	4.95	8
0	16887	4.95	5
0	16888	4.95	3
0	16889	4.95	5
0	16890	4.95	3
0	16891	4.95	1
0	16892	4.95	1
0	17404	5	3
0	17405	5	5
0	17406	5	3
0	17407	5	5
0	17408	5	8
0	17409	5	5
0	17410	5	3
0	17411	5	5
0	17412	5	3
0	17413	5	1
0	17414	5	1
0	17416	5	3
0	17417	5	5
0	17418	5	3
0	17419	5	5
0	17420	5	8
0	17421	5	5
0	17422	5	3
0	17423	5	5
0	17424	5	3
0	17425	5	1
0	17426	5	1
0	17579	5.05	3
0	17580	5.05	5
0	17581	5.05	3
0	17582	5.05	5
0	17583	5.05	8
0	17584	5.05	5
0	17585	5.05	3
0	17586	5.05	5
0	17587	5.05	3
0	17588	5.05	1
0	17589	5.05	1
0	17781	5.1	3
0	17782	5.1	5
0	17783	5.1	3
0	17784	5.1	5
0	17785	5.1	8
0	17786	5.1	5
0	17787	5.1	3
0	17788	5.1	5
0	17789	5.1	3
0	17790	5.1	1
0	17791	5.1	1
0	17793	5.1	3
0	17794	5.1	5
0	17795	5.1	3
0	17796	5.1	5
0	17797	5.1	8
0	17798	5.1	5
0	17799	5.1	3
0	17800	5.1	5
0	17801	5.1	3
0	17802	5.1	1
0	17803	5.1	1
0	18017	5.15	3
0	18018	5.15	5
0	18019	5.15	3
0	18020	5.15	5
0	18021	5.15	8
0	18022	5.15	5
0	18023	5.15	3
0	18024	5.15	5
0	18025	5.15	3
0	18026	5.15	1
0	18027	5.15	1
0	18116	5.2	3
0	18117	5.2	5
0	18118	5.2	3
0	18119	5.2	5
0	18120	5.2	8
0	18121	5.2	5
0	18122	5.2	3
0	18123	5.2	5
0	18124	5.2	3
0	18125	5.2	1
0	18126	5.2	1
0	18128	5.2	3
0	18129	5.2	5
0	18130	5.2	3
0	18131	5.2	5
0	18132	5.2	8
0	18133	5.2	5
0	18134	5.2	3
0	18135	5.2	5
0	18136	5.2	3
0	18137	5.2	1
0	18138	5.2	1
0	18249	5.25	3
0	18250	5.25	5
0	18251	5.25	3
0	18252	5.25	5
0	18253	5.25	8
0	18254	5.25	5
0	18255	5.25	3
0	18256	5.25	5
0	18257	5.25	3
0	18258	5.25	1
0	18259	5.25	1
0	18348	5.3	3
0	18349	5.3	5
0	18350	5.3	3
0	18351	5.3	5
0	18352	5.3	8
0	18353	5.3	5
0	18354	5.3	3
0	18355	5.3	5
0	18356	5.3	3
0	18357	5.3	1
0	18358	5.3	1
0	18360	5.3	3
0	18361	5.3	5
0	18362	5.3	3
0	18363	5.3	5
0	18364	5.3	8
0	18365	5.3	5
0	18366	5.3	3
0	18367	5.3	5
0	18368	5.3	3
0	18369	5.3	1
0	18370	5.3	1
0	18481	5.35	3
0	18482	5.35	5
0	18483	5.35	3
0	18484	5.35	5
0	18485	5.35	8
0	18486	5.35	5
0	18487	5.35	3
0	18488	5.35	5
0	18489	5.35	3
0	18490	5.35	1
0	18491	5.35	1
0	18580	5.4	3
0	18581	5.4	5
0	18582	5.4	3
0	18583	5.4	5
0	18584	5.4	8
0	18585	5.4	5
0	18586	5.4	3
0	18587	5.4	5
0	18588	5.4	3
0	18589	5.4	1
0	18590	5.4	1
0	18592	5.4	3
0	18593	5.4	5
0	18594	5.4	3
0	18595	5.4	5
0	18596	5.4	8
0	18597	5.4	5
0	18598	5.4	3
0	18599	5.4	5
0	18600	5.4	3
0	18601	5.4	1
0	18602	5.4	1
0	18736	5.45	3
0	18737	5.45	5
0	18738	5.45	3
0	18739	5.45	5
0	18740	5.45	8
0	18741	5.45	5
0	18742	5.45	3
0	18743	5.45	5
0	18744	5.45	3
0	18745	5.45	1
0	18746	5.45	1
0	18925	5.5	3
0	18926	5.5	5
0	18927	5.5	3
0	18928	5.5	5
0	18929	5.5	8
0	18930	5.5	5
0	18931	5.5	3
0	18932	5.5	5
0	18933	5.5	3
0	18934	5.5	1
0	18935	5.5	1
0	18937	5.5	3
0	18938	5.5	5
0	18939	5.5	3
0	18940	5.5	5
0	18941	5.5	8
0	18942	5.5	5
0	18943	5.5	3
0	18944	5.5	5
0	18945	5.5	3
0	18946	5.5	1
0	18947	5.5	1
0	19443	5.55	3
0	19444	5.55	5
0	19445	5.55	3
0	19446	5.55	5
0	19447	5.55	8
0	19448	5.55	5
0	19449	5.55	3
0	19450	5.55	5
0	19451	5.55	3
0	19452	5.55	1
0	19453	5.55	1
0	19598	5.6	3
0	19599	5.6	5
0	19600	5.6	3
0	19601	5.6	5
0	19602	5.6	8
0	19603	5.6	5
0	19604	5.6	3
0	19605	5.6	5
0	19606	5.6	3
0	19607	5.6	1
0	19608	5.6	1
0	19610	5.6	3
0	19611	5.6	5
0	19612	5.6	3
0	19613	5.6	5
0	19614	5.6	8
0	19615	5.6	5
0	19616	5.6	3
0	19617	5.6	5
0	19618	5.6	3
0	19619	5.6	1
0	19620	5.6	1
0	19823	5.65	3
0	19824	5.65	5
0	19825	5.65	3
0	19826	5.65	5
0	19827	5.65	8
0	19828	5.65	5
0	19829	5.65	3
0	19830	5.65	5
0	19831	5.65	3
0	19832	5.65	1
0	19833	5.65	1
0	20014	5.7	3
0	20015	5.7	5
0	20016	5.7	3
0	20017	5.7	5
0	20018	5.7	8
0	20019	5.7	5
0	20020	5.7	3
0	20021	5.7	5
0	20022	5.7	3
0	20023	5.7	1
0	20024	5.7	1
0	20026	5.7	3
0	20027	5.7	5
0	20028	5.7	3
0	20029	5.7	5
0	20030	5.7	8
0	20031	5.7	5
0	20032	5.7	3
0	20033	5.7	5
0	20034	5.7	3
0	20035	5.7	1
0	20036	5.7	1
0	20147	5.75	3
0	20148	5.75	5
0	20149	5.75	3
0	20150	5.75	5
0	20151	5.75	8
0	20152	5.75	5
0	20153	5.75	3
0	20154	5.75	5
0	20155	5.75	3
0	20156	5.75	1
0	20157	5.75	1
0	20246	5.8	3
0	20247	5.8	5
0	20248	5.8	3
0	20249	5.8	5
0	20250	5.8	8
0	20251	5.8	5
0	20252	5.8	3
0	20253	5.8	5
0	20254	5.8	3
0	20255	5.8	1
0	20256	5.8	1
0	20258	5.8	3
0	20259	5.8	5
0	20260	5.8	3
0	20261	5.8	5
0	20262	5.8	8
0	20263	5.8	5
0	20264	5.8	3
0	20265	5.8	5
0	20266	5.8	3
0	20267	5.8	1
0	20268	5.8	1
0	20379	5.85	3
0	20380	5.85	5
0	20381	5.85	3
0	20382	5.85	5
0	20383	5.85	8
0	20384	5.85	5
0	20385	5.85	3
0	20386	5.85	5
0	20387	5.85	3
0	20388	5.85	1
0	20389	5.85	1
0	20478	5.9	3
0	20479	5.9	5
0	20480	5.9	3
0	20481	5.9	5
0	20482	5.9	8
0	20483	5.9	5
0	20484	5.9	3
0	20485	5.9	5
0	20486	5.9	3
0	20487	5.9	1
0	20488	5.9	1
0	20490	5.9	3
0	20491	5.9	5
0	20492	5.9	3
0	20493	5.9	5
0	20494	5.9	8
0	20495	5.9	5
0	20496	5.9	3
0	20497	5.9	5
0	20498	5.9	3
0	20499	5.9	1
0	20500	5.9	1
0	20611	5.95	3
0	20612	5.95	5
0	20613	5.95	3
0	20614	5.95	5
0	20615	5.95	8
0	20616	5.95	5
0	20617	5.95	3
0	20618	5.95	5
0	20619	5.95	3
0	20620	5.95	1
0	20621	5.95	1
0	20731	6	3
0	20732	6	5
0	20733	6	3
0	20734	6	5
0	20735	6	8
0	20736	6	5
0	20737	6	3
0	20738	6	5
0	20739	6	3
0	20740	6	1
0	20741	6	1
0	20743	6	3
0	20744	6	5
0	20745	6	3
0	20746	6	5
0	20747	6	8
0	20748	6	5
0	20749	6	3
0	20750	6	5
0	20751	6	3
0	20752	6	1
0	20753	6	1
0	20973	6.05	3
0	20974	6.05	5
0	20975	6.05	3
0	20976	6.05	5
0	20977	6.05	8
0	20978	6.05	5
0	20979	6.05	3
0	20980	6.05	5
0	20981	6.05	3
0	20982	6.05	1
0	20983	6.05	1
0	21465	6.1	3
0	21466	6.1	5
0	21467	6.1	3
0	21468	6.1	5
0	21469	6.1	8
0	21470	6.1	5
0	21471	6.1	3
0	21472	6.1	5
0	21473	6.1	3
0	21474	6.1	1
0	21475	6.1	1
0	21477	6.1	3
0	21478	6.1	5
0	21479	6.1	3
0	21480	6.1	5
0	21481	6.1	8
0	21482	6.1	5
0	21483	6.1	3
0	21484	6.1	5
0	21485	6.1	3
0	21486	6.1	1
0	21487	6.1	1
0	21645	6.15	3
0	21646	6.15	5
0	21647	6.15	3
0	21648	6.15	5
0	21649	6.15	8
0	21650	6.15	5
0	21651	6.15	3
0	21652	6.15	5
0	21653	6.15	3
0	21654	6.15	1
0	21655	6.15	1
0	21853	6.2	3
0	21854	6.2	5
0	21855	6.2	3
0	21856	6.2	5
0	21857	6.2	8
0	21858	6.2	5
0	21859	6.2	3
0	21860	6.2	5
0	21861	6.2	3
0	21862	6.2	1
0	21863	6.2	1
0	21865	6.2	3
0	21866	6.2	5
0	21867	6.2	3
0	21868	6.2	5
0	21869	6.2	8
0	21870	6.2	5
0	21871	6.2	3
0	21872	6.2	5
0	21873	6.2	3
0	21874	6.2	1
0	21875	6.2	1
0	22060	6.25	3
0	22061	6.25	5
0	22062	6.25	3
0	22063	6.25	5
0	22064	6.25	8
0	22065	6.25	5
0	22066	6.25	3
0	22067	6.25	5
0	22068	6.25	3
0	22069	6.25	1
0	22070	6.25	1
0	22159	6.3	3
0	22160	6.3	5
0	22161	6.3	3
0	22162	6.3	5
0	22163	6.3	8
0	22164	6.3	5
0	22165	6.3	3
0	22166	6.3	5
0	22167	6.3	3
0	22168	6.3	1
0	22169	6.3	1
0	22171	6.3	3
0	22172	6.3	5
0	22173	6.3	3
0	22174	6.3	5
0	22175	6.3	8
0	22176	6.3	5
0	22177	6.3	3
0	22178	6.3	5
0	22179	6.3	3
0	22180	6.3	1
0	22181	6.3	1
0	22292	6.35	3
0	22293	6.35	5
0	22294	6.35	3
0	22295	6.35	5
0	22296	6.35	8
0	22297	6.35	5
0	22298	6.35	3
0	22299	6.35	5
0	22300	6.35	3
0	22301	6.35	1
0	22302	6.35	1
0	22391	6.4	3
0	22392	6.4	5
0	22393	6.4	3
0	22394	6.4	5
0	22395	6.4	8
0	22396	6.4	5
0	22397	6.4	3
0	22398	6.4	5
0	22399	6.4	3
0	22400	6.4	1
0	22401	6.4	1
0	22403	6.4	3
0	22404	6.4	5
0	22405	6.4	3
0	22406	6.4	5
0	22407	6.4	8
0	22408	6.4	5
0	22409	6.4	3
0	22410	6.4	5
0	22411	6.4	3
0	22412	6.4	1
0	22413	6.4	1
0	22524	6.45	3
0	22525	6.45	5
0	22526	6.45	3
0	22527	6.45	5
0	22528	6.45	8
0	22529	6.45	5
0	22530	6.45	3
0	22531	6.45	5
0	22532	6.45	3
0	22533	6.45	1
0	22534	6.45	1
0	22634	6.5	3
0	22635	6.5	5
0	22636	6.5	3
0	22637	6.5	5
0	22638	6.5	8
0	22639	6.5	5
0	22640	6.5	3
0	22641	6.5	5
0	22642	6.5	3
0	22643	6.5	1
0	22644	6.5	1
0	22646	6.5	3
0	22647	6.5	5
0	22648	6.5	3
0	22649	6.5	5
0	22650	6.5	8
0	22651	6.5	5
0	22652	6.5	3
0	22653	6.5	5
0	22654	6.5	3
0	22655	6.5	1
0	22656	6.5	1
0	22772	6.55	3
0	22773	6.55	5
0	22774	6.55	3
0	22775	6.55	5
0	22776	6.55	8
0	22777	6.55	5
0	22778	6.55	3
0	22779	6.55	5
0	22780	6.55	3
0	22781	6.55	1
0	22782	6.55	1
0	23023	6.6	3
0	23024	6.6	5
0	23025	6.6	3
0	23026	6.6	5
0	23027	6.6	8
0	23028	6.6	5
0	23029	6.6	3
0	23030	6.6	5
0	23031	6.6	3
0	23032	6.6	1
0	23033	6.6	1
0	23035	6.6	3
0	23036	6.6	5
0	23037	6.6	3
0	23038	6.6	5
0	23039	6.6	8
0	23040	6.6	5
0	23041	6.6	3
0	23042	6.6	5
0	23043	6.6	3
0	23044	6.6	1
0	23045	6.6	1
0	23621	6.65	3
0	23622	6.65	5
0	23623	6.65	3
0	23624	6.65	5
0	23625	6.65	8
0	23626	6.65	5
0	23627	6.65	3
0	23628	6.65	5
0	23629	6.65	3
0	23630	6.65	1
0	23631	6.65	1
0	24069	6.7	3
0	24070	6.7	5
0	24071	6.7	3
0	24072	6.7	5
0	24073	6.7	8
0	24074	6.7	5
0	24075	6.7	3
0	24076	6.7	5
0	24077	6.7	3
0	24078	6.7	1
0	24079	6.7	1
0	24081	6.7	3
0	24082	6.7	5
0	24083	6.7	3
0	24084	6.7	5
0	24085	6.7	8
0	24086	6.7	5
0	24087	6.7	3
0	24088	6.7	5
0	24089	6.7	3
0	24090	6.7	1
0	24091	6.7	1
0	24399	6.75	3
0	24400	6.75	5
0	24401	6.75	3
0	24402	6.75	5
0	24403	6.75	8
0	24404	6.75	5
0	24405	6.75	3
0	24406	6.75	5
0	24407	6.75	3
0	24408	6.75	1
0	24409	6.75	1
0	24685	6.8	3
0	24686	6.8	5
0	24687	6.8	3
0	24688	6.8	5
0	24689	6.8	8
0	24690	6.8	5
0	24691	6.8	3
0	24692	6.8	5
0	24693	6.8	3
0	24694	6.8	1
0	24695	6.8	1
0	24697	6.8	3
0	24698	6.8	5
0	24699	6.8	3
0	24700	6.8	5
0	24701	6.8	8
0	24702	6.8	5
0	24703	6.8	3
0	24704	6.8	5
0	24705	6.8	3
0	24706	6.8	1
0	24707	6.8	1
0	24869	6.85	3
0	24870	6.85	5
0	24871	6.85	3
0	24872	6.85	5
0	24873	6.85	8
0	24874	6.85	5
0	24875	6.85	3
0	24876	6.85	5
0	24877	6.85	3
0	24878	6.85	1
0	24879	6.85	1
0	25012	6.9	3
0	25013	6.9	5
0	25014	6.9	3
0	25015	6.9	5
0	25016	6.9	8
0	25017	6.9	5
0	25018	6.9	3
0	25019	6.9	5
0	25020	6.9	3
0	25021	6.9	1
0	25022	6.9	1
0	25024	6.9	3
0	25025	6.9	5
0	25026	6.9	3
0	25027	6.9	5
0	25028	6.9	8
0	25029	6.9	5
0	25030	6.9	3
0	25031	6.9	5
0	25032	6.9	3
0	25033	6.9	1
0	25034	6.9	1
0	25145	6.95	3
0	25146	6.95	5
0	25147	6.95	3
0	25148	6.95	5
0	25149	6.95	8
0	25150	6.95	5
0	25151	6.95	3
0	25152	6.95	5
0	25153	6.95	3
0	25154	6.95	1
0	25155	6.95	1
0	25255	7	3
0	25256	7	5
0	25257	7	3
0	25258	7	5
0	25259	7	8
0	25260	7	5
0	25261	7	3
0	25262	7	5
0	25263	7	3
0	25264	7	1
0	25265	7	1
0	25267	7	3
0	25268	7	5
0	25269	7	3
0	25270	7	5
0	25271	7	8
0	25272	7	5
0	25273	7	3
0	25274	7	5
0	25275	7	3
0	25276	7	1
0	25277	7	1
0	25388	7.05	3
0	25389	7.05	5
0	25390	7.05	3
0	25391	7.05	5
0	25392	7.05	8
0	25393	7.05	5
0	25394	7.05	3
0	25395	7.05	5
0	25396	7.05	3
0	25397	7.05	1
0	25398	7.05	1
0	25498	7.1	3
0	25499	7.1	5
0	25500	7.1	3
0	25501	7.1	5
0	25502	7.1	8
0	25503	7.1	5
0	25504	7.1	3
0	25505	7.1	5
0	25506	7.1	3
0	25507	7.1	1
0	25508	7.1	1
0	25510	7.1	3
0	25511	7.1	5
0	25512	7.1	3
0	25513	7.1	5
0	25514	7.1	8
0	25515	7.1	5
0	25516	7.1	3
0	25517	7.1	5
0	25518	7.1	3
0	25519	7.1	1
0	25520	7.1	1
0	25732	7.15	3
0	25733	7.15	5
0	25734	7.15	3
0	25735	7.15	5
0	25736	7.15	8
0	25737	7.15	5
0	25738	7.15	3
0	25739	7.15	5
0	25740	7.15	3
0	25741	7.15	1
0	25742	7.15	1
0	26258	7.2	3
0	26259	7.2	5
0	26260	7.2	3
0	26261	7.2	5
0	26262	7.2	8
0	26263	7.2	5
0	26264	7.2	3
0	26265	7.2	5
0	26266	7.2	3
0	26267	7.2	1
0	26268	7.2	1
0	26270	7.2	3
0	26271	7.2	5
0	26272	7.2	3
0	26273	7.2	5
0	26274	7.2	8
0	26275	7.2	5
0	26276	7.2	3
0	26277	7.2	5
0	26278	7.2	3
0	26279	7.2	1
0	26280	7.2	1
0	26450	7.25	3
0	26451	7.25	5
0	26452	7.25	3
0	26453	7.25	5
0	26454	7.25	8
0	26455	7.25	5
0	26456	7.25	3
0	26457	7.25	5
0	26458	7.25	3
0	26459	7.25	1
0	26460	7.25	1
0	26605	7.3	3
0	26606	7.3	5
0	26607	7.3	3
0	26608	7.3	5
0	26609	7.3	8
0	26610	7.3	5
0	26611	7.3	3
0	26612	7.3	5
0	26613	7.3	3
0	26614	7.3	1
0	26615	7.3	1
0	26617	7.3	3
0	26618	7.3	5
0	26619	7.3	3
0	26620	7.3	5
0	26621	7.3	8
0	26622	7.3	5
0	26623	7.3	3
0	26624	7.3	5
0	26625	7.3	3
0	26626	7.3	1
0	26627	7.3	1
0	26823	7.35	3
0	26824	7.35	5
0	26825	7.35	3
0	26826	7.35	5
0	26827	7.35	8
0	26828	7.35	5
0	26829	7.35	3
0	26830	7.35	5
0	26831	7.35	3
0	26832	7.35	1
0	26833	7.35	1
0	26922	7.4	3
0	26923	7.4	5
0	26924	7.4	3
0	26925	7.4	5
0	26926	7.4	8
0	26927	7.4	5
0	26928	7.4	3
0	26929	7.4	5
0	26930	7.4	3
0	26931	7.4	1
0	26932	7.4	1
0	26934	7.4	3
0	26935	7.4	5
0	26936	7.4	3
0	26937	7.4	5
0	26938	7.4	8
0	26939	7.4	5
0	26940	7.4	3
0	26941	7.4	5
0	26942	7.4	3
0	26943	7.4	1
0	26944	7.4	1
0	27078	7.45	3
0	27079	7.45	5
0	27080	7.45	3
0	27081	7.45	5
0	27082	7.45	8
0	27083	7.45	5
0	27084	7.45	3
0	27085	7.45	5
0	27086	7.45	3
0	27087	7.45	1
0	27088	7.45	1
0	27177	7.5	3
0	27178	7.5	5
0	27179	7.5	3
0	27180	7.5	5
0	27181	7.5	8
0	27182	7.5	5
0	27183	7.5	3
0	27184	7.5	5
0	27185	7.5	3
0	27186	7.5	1
0	27187	7.5	1
0	27189	7.5	3
0	27190	7.5	5
0	27191	7.5	3
0	27192	7.5	5
0	27193	7.5	8
0	27194	7.5	5
0	27195	7.5	3
0	27196	7.5	5
0	27197	7.5	3
0	27198	7.5	1
0	27199	7.5	1
0	27310	7.55	3
0	27311	7.55	5
0	27312	7.55	3
0	27313	7.55	5
0	27314	7.55	8
0	27315	7.55	5
0	27316	7.55	3
0	27317	7.55	5
0	27318	7.55	3
0	27319	7.55	1
0	27320	7.55	1
0	27409	7.6	3
0	27410	7.6	5
0	27411	7.6	3
0	27412	7.6	5
0	27413	7.6	8
0	27414	7.6	5
0	27415	7.6	3
0	27416	7.6	5
0	27417	7.6	3
0	27418	7.6	1
0	27419	7.6	1
0	27421	7.6	3
0	27422	7.6	5
0	27423	7.6	3
0	27424	7.6	5
0	27425	7.6	8
0	27426	7.6	5
0	27427	7.6	3
0	27428	7.6	5
0	27429	7.6	3
0	27430	7.6	1
0	27431	7.6	1
0	27542	7.65	3
0	27543	7.65	5
0	27544	7.65	3
0	27545	7.65	5
0	27546	7.65	8
0	27547	7.65	5
0	27548	7.65	3
0	27549	7.65	5
0	27550	7.65	3
0	27551	7.65	1
0	27552	7.65	1
0	27686	7.7	3
0	27687	7.7	5
0	27688	7.7	3
0	27689	7.7	5
0	27690	7.7	8
0	27691	7.7	5
0	27692	7.7	3
0	27693	7.7	5
0	27694	7.7	3
0	27695	7.7	1
0	27696	7.7	1
0	27698	7.7	3
0	27699	7.7	5
0	27700	7.7	3
0	27701	7.7	5
0	27702	7.7	8
0	27703	7.7	5
0	27704	7.7	3
0	27705	7.7	5
0	27706	7.7	3
0	27707	7.7	1
0	27708	7.7	1
0	28180	7.75	3
0	28181	7.75	5
0	28182	7.75	3
0	28183	7.75	5
0	28184	7.75	8
0	28185	7.75	5
0	28186	7.75	3
0	28187	7.75	5
0	28188	7.75	3
0	28189	7.75	1
0	28190	7.75	1
0	28312	7.8	3
0	28313	7.8	5
0	28314	7.8	3
0	28315	7.8	5
0	28316	7.8	8
0	28317	7.8	5
0	28318	7.8	3
0	28319	7.8	5
0	28320	7.8	3
0	28321	7.8	1
0	28322	7.8	1
0	28324	7.8	3
0	28325	7.8	5
0	28326	7.8	3
0	28327	7.8	5
0	28328	7.8	8
0	28329	7.8	5
0	28330	7.8	3
0	28331	7.8	5
0	28332	7.8	3
0	28333	7.8	1
0	28334	7.8	1
0	28508	7.85	3
0	28509	7.85	5
0	28510	7.85	3
0	28511	7.85	5
0	28512	7.85	8
0	28513	7.85	5
0	28514	7.85	3
0	28515	7.85	5
0	28516	7.85	3
0	28517	7.85	1
0	28518	7.85	1
0	28717	7.9	3
0	28718	7.9	5
0	28719	7.9	3
0	28720	7.9	5
0	28721	7.9	8
0	28722	7.9	5
0	28723	7.9	3
0	28724	7.9	5
0	28725	7.9	3
0	28726	7.9	1
0	28727	7.9	1
0	28729	7.9	3
0	28730	7.9	5
0	28731	7.9	3
0	28732	7.9	5
0	28733	7.9	8
0	28734	7.9	5
0	28735	7.9	3
0	28736	7.9	5
0	28737	7.9	3
0	28738	7.9	1
0	28739	7.9	1
0	28872	7.95	3
0	28873	7.95	5
0	28874	7.95	3
0	28875	7.95	5
0	28876	7.95	8
0	28877	7.95	5
0	28878	7.95	3
0	28879	7.95	5
0	28880	7.95	3
0	28881	7.95	1
0	28882	7.95	1
0	28994	8	3
0	28995	8	5
0	28996	8	3
0	28997	8	5
0	28998	8	8
0	28999	8	5
0	29000	8	3
0	29001	8	5
0	29002	8	3
0	29003	8	1
0	29004	8	1
0	29006	8	3
0	29007	8	5
0	29008	8	3
0	29009	8	5
0	29010	8	8
0	29011	8	5
0	29012	8	3
0	29013	8	5
0	29014	8	3
0	29015	8	1
0	29016	8	1
0	29127	8.05	3
0	29128	8.05	5
0	29129	8.05	3
0	29130	8.05	5
0	29131	8.05	8
0	29132	8.05	5
0	29133	8.05	3
0	29134	8.05	5
0	29135	8.05	3
0	29136	8.05	1
0	29137	8.05	1
0	29237	8.1	3
0	29238	8.1	5
0	29239	8.1	3
0	29240	8.1	5
0	29241	8.1	8
0	29242	8.1	5
0	29243	8.1	3
0	29244	8.1	5
0	29245	8.1	3
0	29246	8.1	1
0	29247	8.1	1
0	29249	8.1	3
0	29250	8.1	5
0	29251	8.1	3
0	29252	8.1	5
0	29253	8.1	8
0	29254	8.1	5
0	29255	8.1	3
0	29256	8.1	5
0	29257	8.1	3
0	29258	8.1	1
0	29259	8.1	1
0	29388	8.15	3
0	29389	8.15	5
0	29390	8.15	3
0	29391	8.15	5
0	29392	8.15	8
0	29393	8.15	5
0	29394	8.15	3
0	29395	8.15	5
0	29396	8.15	3
0	29397	8.15	1
0	29398	8.15	1
0	29538	8.2	3
0	29539	8.2	5
0	29540	8.2	3
0	29541	8.2	5
0	29542	8.2	8
0	29543	8.2	5
0	29544	8.2	3
0	29545	8.2	5
0	29546	8.2	3
0	29547	8.2	1
0	29548	8.2	1
0	29550	8.2	3
0	29551	8.2	5
0	29552	8.2	3
0	29553	8.2	5
0	29554	8.2	8
0	29555	8.2	5
0	29556	8.2	3
0	29557	8.2	5
0	29558	8.2	3
0	29559	8.2	1
0	29560	8.2	1
0	29679	8.25	3
0	29680	8.25	5
0	29681	8.25	3
0	29682	8.25	5
0	29683	8.25	8
0	29684	8.25	5
0	29685	8.25	3
0	29686	8.25	5
0	29687	8.25	3
0	29688	8.25	1
0	29689	8.25	1
0	30101	8.3	3
0	30102	8.3	5
0	30103	8.3	3
0	30104	8.3	5
0	30105	8.3	8
0	30106	8.3	5
0	30107	8.3	3
0	30108	8.3	5
0	30109	8.3	3
0	30110	8.3	1
0	30111	8.3	1
0	30113	8.3	3
0	30114	8.3	5
0	30115	8.3	3
0	30116	8.3	5
0	30117	8.3	8
0	30118	8.3	5
0	30119	8.3	3
0	30120	8.3	5
0	30121	8.3	3
0	30122	8.3	1
0	30123	8.3	1
0	30263	8.35	3
0	30264	8.35	5
0	30265	8.35	3
0	30266	8.35	5
0	30267	8.35	8
0	30268	8.35	5
0	30269	8.35	3
0	30270	8.35	5
0	30271	8.35	3
0	30272	8.35	1
0	30273	8.35	1
0	30408	8.4	3
0	30409	8.4	5
0	30410	8.4	3
0	30411	8.4	5
0	30412	8.4	8
0	30413	8.4	5
0	30414	8.4	3
0	30415	8.4	5
0	30416	8.4	3
0	30417	8.4	1
0	30418	8.4	1
0	30420	8.4	3
0	30421	8.4	5
0	30422	8.4	3
0	30423	8.4	5
0	30424	8.4	8
0	30425	8.4	5
0	30426	8.4	3
0	30427	8.4	5
0	30428	8.4	3
0	30429	8.4	1
0	30430	8.4	1
0	30619	8.45	3
0	30620	8.45	5
0	30621	8.45	3
0	30622	8.45	5
0	30623	8.45	8
0	30624	8.45	5
0	30625	8.45	3
0	30626	8.45	5
0	30627	8.45	3
0	30628	8.45	1
0	30629	8.45	1
0	30745	8.5	3
0	30746	8.5	5
0	30747	8.5	3
0	30748	8.5	5
0	30749	8.5	8
0	30750	8.5	5
0	30751	8.5	3
0	30752	8.5	5
0	30753	8.5	3
0	30754	8.5	1
0	30755	8.5	1
0	30757	8.5	3
0	30758	8.5	5
0	30759	8.5	3
0	30760	8.5	5
0	30761	8.5	8
0	30762	8.5	5
0	30763	8.5	3
0	30764	8.5	5
0	30765	8.5	3
0	30766	8.5	1
0	30767	8.5	1
0	30901	8.55	3
0	30902	8.55	5
0	30903	8.55	3
0	30904	8.55	5
0	30905	8.55	8
0	30906	8.55	5
0	30907	8.55	3
0	30908	8.55	5
0	30909	8.55	3
0	30910	8.55	1
0	30911	8.55	1
0	31000	8.6	3
0	31001	8.6	5
0	31002	8.6	3
0	31003	8.6	5
0	31004	8.6	8
0	31005	8.6	5
0	31006	8.6	3
0	31007	8.6	5
0	31008	8.6	3
0	31009	8.6	1
0	31010	8.6	1
0	31012	8.6	3
0	31013	8.6	5
0	31014	8.6	3
0	31015	8.6	5
0	31016	8.6	8
0	31017	8.6	5
0	31018	8.6	3
0	31019	8.6	5
0	31020	8.6	3
0	31021	8.6	1
0	31022	8.6	1
0	31133	8.65	3
0	31134	8.65	5
0	31135	8.65	3
0	31136	8.65	5
0	31137	8.65	8
0	31138	8.65	5
0	31139	8.65	3
0	31140	8.65	5
0	31141	8.65	3
0	31142	8.65	1
0	31143	8.65	1
0	31306	8.7	3
0	31307	8.7	5
0	31308	8.7	3
0	31309	8.7	5
0	31310	8.7	8
0	31311	8.7	5
0	31312	8.7	3
0	31313	8.7	5
0	31314	8.7	3
0	31315	8.7	1
0	31316	8.7	1
0	31318	8.7	3
0	31319	8.7	5
0	31320	8.7	3
0	31321	8.7	5
0	31322	8.7	8
0	31323	8.7	5
0	31324	8.7	3
0	31325	8.7	5
0	31326	8.7	3
0	31327	8.7	1
0	31328	8.7	1
0	31500	8.75	3
0	31501	8.75	5
0	31502	8.75	3
0	31503	8.75	5
0	31504	8.75	8
0	31505	8.75	5
0	31506	8.75	3
0	31507	8.75	5
0	31508	8.75	3
0	31509	8.75	1
0	31510	8.75	1
0	31677	8.8	3
0	31678	8.8	5
0	31679	8.8	3
0	31680	8.8	5
0	31681	8.8	8
0	31682	8.8	5
0	31683	8.8	3
0	31684	8.8	5
0	31685	8.8	3
0	31686	8.8	1
0	31687	8.8	1
0	31689	8.8	3
0	31690	8.8	5
0	31691	8.8	3
0	31692	8.8	5
0	31693	8.8	8
0	31694	8.8	5
0	31695	8.8	3
0	31696	8.8	5
0	31697	8.8	3
0	31698	8.8	1
0	31699	8.8	1
0	32160	8.85	3
0	32161	8.85	5
0	32162	8.85	3
0	32163	8.85	5
0	32164	8.85	8
0	32165	8.85	5
0	32166	8.85	3
0	32167	8.85	5
0	32168	8.85	3
0	32169	8.85	1
0	32170	8.85	1
0	32324	8.9	3
0	32325	8.9	5
0	32326	8.9	3
0	32327	8.9	5
0	32328	8.9	8
0	32329	8.9	5
0	32330	8.9	3
0	32331	8.9	5
0	32332	8.9	3
0	32333	8.9	1
0	32334	8.9	1
0	32336	8.9	3
0	32337	8.9	5
0	32338	8.9	3
0	32339	8.9	5
0	32340	8.9	8
0	32341	8.9	5
0	32342	8.9	3
0	32343	8.9	5
0	32344	8.9	3
0	32345	8.9	1
0	32346	8.9	1
0	32508	8.95	3
0	32509	8.95	5
0	32510	8.95	3
0	32511	8.95	5
0	32512	8.95	8
0	32513	8.95	5
0	32514	8.95	3
0	32515	8.95	5
0	32516	8.95	3
0	32517	8.95	1
0	32518	8.95	1
0	32693	9	3
0	32694	9	5
0	32695	9	3
0	32696	9	5
0	32697	9	8
0	32698	9	5
0	32699	9	3
0	32700	9	5
0	32701	9	3
0	32702	9	1
0	32703	9	1
0	32705	9	3
0	32706	9	5
0	32707	9	3
0	32708	9	5
0	32709	9	8
0	32710	9	5
0	32711	9	3
0	32712	9	5
0	32713	9	3
0	32714	9	1
0	32715	9	1
0	32826	9.05	3
0	32827	9.05	5
0	32828	9.05	3
0	32829	9.05	5
0	32830	9.05	8
0	32831	9.05	5
0	32832	9.05	3
0	32833	9.05	5
0	32834	9.05	3
0	32835	9.05	1
0	32836	9.05	1
0	32959	9.1	3
0	32960	9.1	5
0	32961	9.1	3
0	32962	9.1	5
0	32963	9.1	8
0	32964	9.1	5
0	32965	9.1	3
0	32966	9.1	5
0	32967	9.1	3
0	32968	9.1	1
0	32969	9.1	1
0	32971	9.1	3
0	32972	9.1	5
0	32973	9.1	3
0	32974	9.1	5
0	32975	9.1	8
0	32976	9.1	5
0	32977	9.1	3
0	32978	9.1	5
0	32979	9.1	3
0	32980	9.1	1
0	32981	9.1	1
0	33105	9.15	3
0	33106	9.15	5
0	33107	9.15	3
0	33108	9.15	5
0	33109	9.15	8
0	33110	9.15	5
0	33111	9.15	3
0	33112	9.15	5
0	33113	9.15	3
0	33114	9.15	1
0	33115	9.15	1
0	33204	9.2	3
0	33205	9.2	5
0	33206	9.2	3
0	33207	9.2	5
0	33208	9.2	8
0	33209	9.2	5
0	33210	9.2	3
0	33211	9.2	5
0	33212	9.2	3
0	33213	9.2	1
0	33214	9.2	1
0	33216	9.2	3
0	33217	9.2	5
0	33218	9.2	3
0	33219	9.2	5
0	33220	9.2	8
0	33221	9.2	5
0	33222	9.2	3
0	33223	9.2	5
0	33224	9.2	3
0	33225	9.2	1
0	33226	9.2	1
0	33410	9.25	3
0	33411	9.25	5
0	33412	9.25	3
0	33413	9.25	5
0	33414	9.25	8
0	33415	9.25	5
0	33416	9.25	3
0	33417	9.25	5
0	33418	9.25	3
0	33419	9.25	1
0	33420	9.25	1
0	33570	9.3	3
0	33571	9.3	5
0	33572	9.3	3
0	33573	9.3	5
0	33574	9.3	8
0	33575	9.3	5
0	33576	9.3	3
0	33577	9.3	5
0	33578	9.3	3
0	33579	9.3	1
0	33580	9.3	1
0	33582	9.3	3
0	33583	9.3	5
0	33584	9.3	3
0	33585	9.3	5
0	33586	9.3	8
0	33587	9.3	5
0	33588	9.3	3
0	33589	9.3	5
0	33590	9.3	3
0	33591	9.3	1
0	33592	9.3	1
0	33760	9.35	3
0	33761	9.35	5
0	33762	9.35	3
0	33763	9.35	5
0	33764	9.35	8
0	33765	9.35	5
0	33766	9.35	3
0	33767	9.35	5
0	33768	9.35	3
0	33769	9.35	1
0	33770	9.35	1
0	34231	9.4	3
0	34232	9.4	5
0	34233	9.4	3
0	34234	9.4	5
0	34235	9.4	8
0	34236	9.4	5
0	34237	9.4	3
0	34238	9.4	5
0	34239	9.4	3
0	34240	9.4	1
0	34241	9.4	1
0	34243	9.4	3
0	34244	9.4	5
0	34245	9.4	3
0	34246	9.4	5
0	34247	9.4	8
0	34248	9.4	5
0	34249	9.4	3
0	34250	9.4	5
0	34251	9.4	3
0	34252	9.4	1
0	34253	9.4	1
0	34420	9.45	3
0	34421	9.45	5
0	34422	9.45	3
0	34423	9.45	5
0	34424	9.45	8
0	34425	9.45	5
0	34426	9.45	3
0	34427	9.45	5
0	34428	9.45	3
0	34429	9.45	1
0	34430	9.45	1
0	34611	9.5	3
0	34612	9.5	5
0	34613	9.5	3
0	34614	9.5	5
0	34615	9.5	8
0	34616	9.5	5
0	34617	9.5	3
0	34618	9.5	5
0	34619	9.5	3
0	34620	9.5	1
0	34621	9.5	1
0	34623	9.5	3
0	34624	9.5	5
0	34625	9.5	3
0	34626	9.5	5
0	34627	9.5	8
0	34628	9.5	5
0	34629	9.5	3
0	34630	9.5	5
0	34631	9.5	3
0	34632	9.5	1
0	34633	9.5	1
0	34830	9.55	3
0	34831	9.55	5
0	34832	9.55	3
0	34833	9.55	5
0	34834	9.55	8
0	34835	9.55	5
0	34836	9.55	3
0	34837	9.55	5
0	34838	9.55	3
0	34839	9.55	1
0	34840	9.55	1
0	34929	9.6	3
0	34930	9.6	5
0	34931	9.6	3
0	34932	9.6	5
0	34933	9.6	8
0	34934	9.6	5
0	34935	9.6	3
0	34936	9.6	5
0	34937	9.6	3
0	34938	9.6	1
0	34939	9.6	1
0	34941	9.6	3
0	34942	9.6	5
0	34943	9.6	3
0	34944	9.6	5
0	34945	9.6	8
0	34946	9.6	5
0	34947	9.6	3
0	34948	9.6	5
0	34949	9.6	3
0	34950	9.6	1
0	34951	9.6	1
0	35090	9.65	3
0	35091	9.65	5
0	35092	9.65	3
0	35093	9.65	5
0	35094	9.65	8
0	35095	9.65	5
0	35096	9.65	3
0	35097	9.65	5
0	35098	9.65	3
0	35099	9.65	1
0	35100	9.65	1
0	35189	9.7	3
0	35190	9.7	5
0	35191	9.7	3
0	35192	9.7	5
0	35193	9.7	8
0	35194	9.7	5
0	35195	9.7	3
0	35196	9.7	5
0	35197	9.7	3
0	35198	9.7	1
0	35199	9.7	1
0	35201	9.7	3
0	35202	9.7	5
0	35203	9.7	3
0	35204	9.7	5
0	35205	9.7	8
0	35206	9.7	5
0	35207	9.7	3
0	35208	9.7	5
0	35209	9.7	3
0	35210	9.7	1
0	35211	9.7	1
0	35322	9.75	3
0	35323	9.75	5
0	35324	9.75	3
0	35325	9.75	5
0	35326	9.75	8
0	35327	9.75	5
0	35328	9.75	3
0	35329	9.75	5
0	35330	9.75	3
0	35331	9.75	1
0	35332	9.75	1
0	35488	9.8	3
0	35489	9.8	5
0	35490	9.8	3
0	35491	9.8	5
0	35492	9.8	8
0	35493	9.8	5
0	35494	9.8	3
0	35495	9.8	5
0	35496	9.8	3
0	35497	9.8	1
0	35498	9.8	1
0	35500	9.8	3
0	35501	9.8	5
0	35502	9.8	3
0	35503	9.8	5
0	35504	9.8	8
0	35505	9.8	5
0	35506	9.8	3
0	35507	9.8	5
0	35508	9.8	3
0	35509	9.8	1
0	35510	9.8	1
0	35661	9.85	3
0	35662	9.85	5
0	35663	9.85	3
0	35664	9.85	5
0	35665	9.85	8
0	35666	9.85	5
0	35667	9.85	3
0	35668	9.85	5
0	35669	9.85	3
0	35670	9.85	1
0	35671	9.85	1
0	35783	9.9	3
0	35784	9.9	5
0	35785	9.9	3
0	35786	9.9	5
0	35787	9.9	8
0	35788	9.9	5
0	35789	9.9	3
0	35790	9.9	5
0	35791	9.9	3
0	35792	9.9	1
0	35793	9.9	1
0	35795	9.9	3
0	35796	9.9	5
0	35797	9.9	3
0	35798	9.9	5
0	35799	9.9	8
0	35800	9.9	5
0	35801	9.9	3
0	35802	9.9	5
0	35803	9.9	3
0	35804	9.9	1
0	35805	9.9	1
0	36243	9.95	3
0	36244	9.95	5
0	36245	9.95	3
0	36246	9.95	5
0	36247	9.95	8
0	36248	9.95	5
0	36249	9.95	3
0	36250	9.95	5
0	36251	9.95	3
0	36252	9.95	1
0	36253	9.95	1
0	36347	10	3
0	36348	10	5
0	36349	10	3
0	36350	10	5
0	36351	10	8
0	36352	10	5
0	36353	10	3
0	36354	10	5
0	36355	10	3
0	36356	10	1
0	36357	10	1
0	36359	10	3
0	36360	10	5
0	36361	10	3
0	36362	10	5
0	36363	10	8
0	36364	10	5
0	36365	10	3
0	36366	10	5
0	36367	10	3
0	36368	10	1
0	36369	10	1
0	36525	10.05	3
0	36526	10.05	5
0	36527	10.05	3
0	36528	10.05	5
0	36529	10.05	8
0	36530	10.05	5
0	36531	10.05	3
0	36532	10.05	5
0	36533	10.05	3
0	36534	10.05	1
0	36535	10.05	1
0	36740	10.1	3
0	36741	10.1	5
0	36742	10.1	3
0	36743	10.1	5
0	36744	10.1	8
0	36745	10.1	5
0	36746	10.1	3
0	36747	10.1	5
0	36748	10.1	3
0	36749	10.1	1
0	36750	10.1	1
0	36752	10.1	3
0	36753	10.1	5
0	36754	10.1	3
0	36755	10.1	5
0	36756	10.1	8
0	36757	10.1	5
0	36758	10.1	3
0	36759	10.1	5
0	36760	10.1	3
0	36761	10.1	1
0	36762	10.1	1
0	36894	10.15	3
0	36895	10.15	5
0	36896	10.15	3
0	36897	10.15	5
0	36898	10.15	8
0	36899	10.15	5
0	36900	10.15	3
0	36901	10.15	5
0	36902	10.15	3
0	36903	10.15	1
0	36904	10.15	1
0	37016	10.2	3
0	37017	10.2	5
0	37018	10.2	3
0	37019	10.2	5
0	37020	10.2	8
0	37021	10.2	5
0	37022	10.2	3
0	37023	10.2	5
0	37024	10.2	3
0	37025	10.2	1
0	37026	10.2	1
0	37028	10.2	3
0	37029	10.2	5
0	37030	10.2	3
0	37031	10.2	5
0	37032	10.2	8
0	37033	10.2	5
0	37034	10.2	3
0	37035	10.2	5
0	37036	10.2	3
0	37037	10.2	1
0	37038	10.2	1
0	37149	10.25	3
0	37150	10.25	5
0	37151	10.25	3
0	37152	10.25	5
0	37153	10.25	8
0	37154	10.25	5
0	37155	10.25	3
0	37156	10.25	5
0	37157	10.25	3
0	37158	10.25	1
0	37159	10.25	1
0	37248	10.3	3
0	37249	10.3	5
0	37250	10.3	3
0	37251	10.3	5
0	37252	10.3	8
0	37253	10.3	5
0	37254	10.3	3
0	37255	10.3	5
0	37256	10.3	3
0	37257	10.3	1
0	37258	10.3	1
0	37260	10.3	3
0	37261	10.3	5
0	37262	10.3	3
0	37263	10.3	5
0	37264	10.3	8
0	37265	10.3	5
0	37266	10.3	3
0	37267	10.3	5
0	37268	10.3	3
0	37269	10.3	1
0	37270	10.3	1
0	37403	10.35	3
0	37404	10.35	5
0	37405	10.35	3
0	37406	10.35	5
0	37407	10.35	8
0	37408	10.35	5
0	37409	10.35	3
0	37410	10.35	5
0	37411	10.35	3
0	37412	10.35	1
0	37413	10.35	1
0	37525	10.4	3
0	37526	10.4	5
0	37527	10.4	3
0	37528	10.4	5
0	37529	10.4	8
0	37530	10.4	5
0	37531	10.4	3
0	37532	10.4	5
0	37533	10.4	3
0	37534	10.4	1
0	37535	10.4	1
0	37537	10.4	3
0	37538	10.4	5
0	37539	10.4	3
0	37540	10.4	5
0	37541	10.4	8
0	37542	10.4	5
0	37543	10.4	3
0	37544	10.4	5
0	37545	10.4	3
0	37546	10.4	1
0	37547	10.4	1
0	37725	10.45	3
0	37726	10.45	5
0	37727	10.45	3
0	37728	10.45	5
0	37729	10.45	8
0	37730	10.45	5
0	37731	10.45	3
0	37732	10.45	5
0	37733	10.45	3
0	37734	10.45	1
0	37735	10.45	1
0	38180	10.5	3
0	38181	10.5	5
0	38182	10.5	3
0	38183	10.5	5
0	38184	10.5	8
0	38185	10.5	5
0	38186	10.5	3
0	38187	10.5	5
0	38188	10.5	3
0	38189	10.5	1
0	38190	10.5	1
0	38192	10.5	3
0	38193	10.5	5
0	38194	10.5	3
0	38195	10.5	5
0	38196	10.5	8
0	38197	10.5	5
0	38198	10.5	3
0	38199	10.5	5
0	38200	10.5	3
0	38201	10.5	1
0	38202	10.5	1
0	38349	10.55	3
0	38350	10.55	5
0	38351	10.55	3
0	38352	10.55	5
0	38353	10.55	8
0	38354	10.55	5
0	38355	10.55	3
0	38356	10.55	5
0	38357	10.55	3
0	38358	10.55	1
0	38359	10.55	1
0	38517	10.6	3
0	38518	10.6	5
0	38519	10.6	3
0	38520	10.6	5
0	38521	10.6	8
0	38522	10.6	5
0	38523	10.6	3
0	38524	10.6	5
0	38525	10.6	3
0	38526	10.6	1
0	38527	10.6	1
0	38529	10.6	3
0	38530	10.6	5
0	38531	10.6	3
0	38532	10.6	5
0	38533	10.6	8
0	38534	10.6	5
0	38535	10.6	3
0	38536	10.6	5
0	38537	10.6	3
0	38538	10.6	1
0	38539	10.6	1
0	38816	10.65	3
0	38817	10.65	5
0	38818	10.65	3
0	38819	10.65	5
0	38820	10.65	8
0	38821	10.65	5
0	38822	10.65	3
0	38823	10.65	5
0	38824	10.65	3
0	38825	10.65	1
0	38826	10.65	1
0	38959	10.7	3
0	38960	10.7	5
0	38961	10.7	3
0	38962	10.7	5
0	38963	10.7	8
0	38964	10.7	5
0	38965	10.7	3
0	38966	10.7	5
0	38967	10.7	3
0	38968	10.7	1
0	38969	10.7	1
0	38971	10.7	3
0	38972	10.7	5
0	38973	10.7	3
0	38974	10.7	5
0	38975	10.7	8
0	38976	10.7	5
0	38977	10.7	3
0	38978	10.7	5
0	38979	10.7	3
0	38980	10.7	1
0	38981	10.7	1
0	39136	10.75	3
0	39137	10.75	5
0	39138	10.75	3
0	39139	10.75	5
0	39140	10.75	8
0	39141	10.75	5
0	39142	10.75	3
0	39143	10.75	5
0	39144	10.75	3
0	39145	10.75	1
0	39146	10.75	1
0	39268	10.8	3
0	39269	10.8	5
0	39270	10.8	3
0	39271	10.8	5
0	39272	10.8	8
0	39273	10.8	5
0	39274	10.8	3
0	39275	10.8	5
0	39276	10.8	3
0	39277	10.8	1
0	39278	10.8	1
0	39280	10.8	3
0	39281	10.8	5
0	39282	10.8	3
0	39283	10.8	5
0	39284	10.8	8
0	39285	10.8	5
0	39286	10.8	3
0	39287	10.8	5
0	39288	10.8	3
0	39289	10.8	1
0	39290	10.8	1
0	39401	10.85	3
0	39402	10.85	5
0	39403	10.85	3
0	39404	10.85	5
0	39405	10.85	8
0	39406	10.85	5
0	39407	10.85	3
0	39408	10.85	5
0	39409	10.85	3
0	39410	10.85	1
0	39411	10.85	1
0	39517	10.9	3
0	39518	10.9	5
0	39519	10.9	3
0	39520	10.9	5
0	39521	10.9	8
0	39522	10.9	5
0	39523	10.9	3
0	39524	10.9	5
0	39525	10.9	3
0	39526	10.9	1
0	39527	10.9	1
0	39529	10.9	3
0	39530	10.9	5
0	39531	10.9	3
0	39532	10.9	5
0	39533	10.9	8
0	39534	10.9	5
0	39535	10.9	3
0	39536	10.9	5
0	39537	10.9	3
0	39538	10.9	1
0	39539	10.9	1
0	39673	10.95	3
0	39674	10.95	5
0	39675	10.95	3
0	39676	10.95	5
0	39677	10.95	8
0	39678	10.95	5
0	39679	10.95	3
0	39680	10.95	5
0	39681	10.95	3
0	39682	10.95	1
0	39683	10.95	1
0	39823	11	3
0	39824	11	5
0	39825	11	3
0	39826	11	5
0	39827	11	8
0	39828	11	5
0	39829	11	3
0	39830	11	5
0	39831	11	3
0	39832	11	1
0	39833	11	1
0	39835	11	3
0	39836	11	5
0	39837	11	3
0	39838	11	5
0	39839	11	8
0	39840	11	5
0	39841	11	3
0	39842	11	5
0	39843	11	3
0	39844	11	1
0	39845	11	1
0	40299	11.05	3
0	40300	11.05	5
0	40301	11.05	3
0	40302	11.05	5
0	40303	11.05	8
0	40304	11.05	5
0	40305	11.05	3
0	40306	11.05	5
0	40307	11.05	3
0	40308	11.05	1
0	40309	11.05	1
0	40437	11.1	3
0	40438	11.1	5
0	40439	11.1	3
0	40440	11.1	5
0	40441	11.1	8
0	40442	11.1	5
0	40443	11.1	3
0	40444	11.1	5
0	40445	11.1	3
0	40446	11.1	1
0	40447	11.1	1
0	40449	11.1	3
0	40450	11.1	5
0	40451	11.1	3
0	40452	11.1	5
0	40453	11.1	8
0	40454	11.1	5
0	40455	11.1	3
0	40456	11.1	5
0	40457	11.1	3
0	40458	11.1	1
0	40459	11.1	1
0	40611	11.15	3
0	40612	11.15	5
0	40613	11.15	3
0	40614	11.15	5
0	40615	11.15	8
0	40616	11.15	5
0	40617	11.15	3
0	40618	11.15	5
0	40619	11.15	3
0	40620	11.15	1
0	40621	11.15	1
0	40805	11.2	3
0	40806	11.2	5
0	40807	11.2	3
0	40808	11.2	5
0	40809	11.2	8
0	40810	11.2	5
0	40811	11.2	3
0	40812	11.2	5
0	40813	11.2	3
0	40814	11.2	1
0	40815	11.2	1
0	40817	11.2	3
0	40818	11.2	5
0	40819	11.2	3
0	40820	11.2	5
0	40821	11.2	8
0	40822	11.2	5
0	40823	11.2	3
0	40824	11.2	5
0	40825	11.2	3
0	40826	11.2	1
0	40827	11.2	1
0	40961	11.25	3
0	40962	11.25	5
0	40963	11.25	3
0	40964	11.25	5
0	40965	11.25	8
0	40966	11.25	5
0	40967	11.25	3
0	40968	11.25	5
0	40969	11.25	3
0	40970	11.25	1
0	40971	11.25	1
0	41060	11.3	3
0	41061	11.3	5
0	41062	11.3	3
0	41063	11.3	5
0	41064	11.3	8
0	41065	11.3	5
0	41066	11.3	3
0	41067	11.3	5
0	41068	11.3	3
0	41069	11.3	1
0	41070	11.3	1
0	41072	11.3	3
0	41073	11.3	5
0	41074	11.3	3
0	41075	11.3	5
0	41076	11.3	8
0	41077	11.3	5
0	41078	11.3	3
0	41079	11.3	5
0	41080	11.3	3
0	41081	11.3	1
0	41082	11.3	1
0	41193	11.35	3
0	41194	11.35	5
0	41195	11.35	3
0	41196	11.35	5
0	41197	11.35	8
0	41198	11.35	5
0	41199	11.35	3
0	41200	11.35	5
0	41201	11.35	3
0	41202	11.35	1
0	41203	11.35	1
0	41349	11.4	3
0	41350	11.4	5
0	41351	11.4	3
0	41352	11.4	5
0	41353	11.4	8
0	41354	11.4	5
0	41355	11.4	3
0	41356	11.4	5
0	41357	11.4	3
0	41358	11.4	1
0	41359	11.4	1
0	41361	11.4	3
0	41362	11.4	5
0	41363	11.4	3
0	41364	11.4	5
0	41365	11.4	8
0	41366	11.4	5
0	41367	11.4	3
0	41368	11.4	5
0	41369	11.4	3
0	41370	11.4	1
0	41371	11.4	1
0	41610	11.45	3
0	41611	11.45	5
0	41612	11.45	3
0	41613	11.45	5
0	41614	11.45	8
0	41615	11.45	5
0	41616	11.45	3
0	41617	11.45	5
0	41618	11.45	3
0	41619	11.45	1
0	41620	11.45	1
0	41785	11.5	3
0	41786	11.5	5
0	41787	11.5	3
0	41788	11.5	5
0	41789	11.5	8
0	41790	11.5	5
0	41791	11.5	3
0	41792	11.5	5
0	41793	11.5	3
0	41794	11.5	1
0	41795	11.5	1
0	41797	11.5	3
0	41798	11.5	5
0	41799	11.5	3
0	41800	11.5	5
0	41801	11.5	8
0	41802	11.5	5
0	41803	11.5	3
0	41804	11.5	5
0	41805	11.5	3
0	41806	11.5	1
0	41807	11.5	1
0	42040	11.55	3
0	42041	11.55	5
0	42042	11.55	3
0	42043	11.55	5
0	42044	11.55	8
0	42045	11.55	5
0	42046	11.55	3
0	42047	11.55	5
0	42048	11.55	3
0	42049	11.55	1
0	42050	11.55	1
0	42491	11.6	3
0	42492	11.6	5
0	42493	11.6	3
0	42494	11.6	5
0	42495	11.6	8
0	42496	11.6	5
0	42497	11.6	3
0	42498	11.6	5
0	42499	11.6	3
0	42500	11.6	1
0	42501	11.6	1
0	42503	11.6	3
0	42504	11.6	5
0	42505	11.6	3
0	42506	11.6	5
0	42507	11.6	8
0	42508	11.6	5
0	42509	11.6	3
0	42510	11.6	5
0	42511	11.6	3
0	42512	11.6	1
0	42513	11.6	1
0	42629	11.65	3
0	42630	11.65	5
0	42631	11.65	3
0	42632	11.65	5
0	42633	11.65	8
0	42634	11.65	5
0	42635	11.65	3
0	42636	11.65	5
0	42637	11.65	3
0	42638	11.65	1
0	42639	11.65	1
0	42751	11.7	3
0	42752	11.7	5
0	42753	11.7	3
0	42754	11.7	5
0	42755	11.7	8
0	42756	11.7	5
0	42757	11.7	3
0	42758	11.7	5
0	42759	11.7	3
0	42760	11.7	1
0	42761	11.7	1
0	42763	11.7	3
0	42764	11.7	5
0	42765	11.7	3
0	42766	11.7	5
0	42767	11.7	8
0	42768	11.7	5
0	42769	11.7	3
0	42770	11.7	5
0	42771	11.7	3
0	42772	11.7	1
0	42773	11.7	1
0	42930	11.75	3
0	42931	11.75	5
0	42932	11.75	3
0	42933	11.75	5
0	42934	11.75	8
0	42935	11.75	5
0	42936	11.75	3
0	42937	11.75	5
0	42938	11.75	3
0	42939	11.75	1
0	42940	11.75	1
0	43029	11.8	3
0	43030	11.8	5
0	43031	11.8	3
0	43032	11.8	5
0	43033	11.8	8
0	43034	11.8	5
0	43035	11.8	3
0	43036	11.8	5
0	43037	11.8	3
0	43038	11.8	1
0	43039	11.8	1
0	43041	11.8	3
0	43042	11.8	5
0	43043	11.8	3
0	43044	11.8	5
0	43045	11.8	8
0	43046	11.8	5
0	43047	11.8	3
0	43048	11.8	5
0	43049	11.8	3
0	43050	11.8	1
0	43051	11.8	1
0	43162	11.85	3
0	43163	11.85	5
0	43164	11.85	3
0	43165	11.85	5
0	43166	11.85	8
0	43167	11.85	5
0	43168	11.85	3
0	43169	11.85	5
0	43170	11.85	3
0	43171	11.85	1
0	43172	11.85	1
0	43261	11.9	3
0	43262	11.9	5
0	43263	11.9	3
0	43264	11.9	5
0	43265	11.9	8
0	43266	11.9	5
0	43267	11.9	3
0	43268	11.9	5
0	43269	11.9	3
0	43270	11.9	1
0	43271	11.9	1
0	43273	11.9	3
0	43274	11.9	5
0	43275	11.9	3
0	43276	11.9	5
0	43277	11.9	8
0	43278	11.9	5
0	43279	11.9	3
0	43280	11.9	5
0	43281	11.9	3
0	43282	11.9	1
0	43283	11.9	1
0	43463	11.95	3
0	43464	11.95	5
0	43465	11.95	3
0	43466	11.95	5
0	43467	11.95	8
0	43468	11.95	5
0	43469	11.95	3
0	43470	11.95	5
0	43471	11.95	3
0	43472	11.95	1
0	43473	11.95	1
0	43640	12	3
0	43641	12	5
0	43642	12	3
0	43643	12	5
0	43644	12	8
0	43645	12	5
0	43646	12	3
0	43647	12	5
0	43648	12	3
0	43649	12	1
0	43650	12	1
0	43652	12	3
0	43653	12	5
0	43654	12	3
0	43655	12	5
0	43656	12	8
0	43657	12	5
0	43658	12	3
0	43659	12	5
0	43660	12	3
0	43661	12	1
0	43662	12	1
0	43773	12.05	3
0	43774	12.05	5
0	43775	12.05	3
0	43776	12.05	5
0	43777	12.05	8
0	43778	12.05	5
0	43779	12.05	3
0	43780	12.05	5
0	43781	12.05	3
0	43782	12.05	1
0	43783	12.05	1
0	43989	12.1	3
0	43990	12.1	5
0	43991	12.1	3
0	43992	12.1	5
0	43993	12.1	8
0	43994	12.1	5
0	43995	12.1	3
0	43996	12.1	5
0	43997	12.1	3
0	43998	12.1	1
0	43999	12.1	1
0	44001	12.1	3
0	44002	12.1	5
0	44003	12.1	3
0	44004	12.1	5
0	44005	12.1	8
0	44006	12.1	5
0	44007	12.1	3
0	44008	12.1	5
0	44009	12.1	3
0	44010	12.1	1
0	44011	12.1	1
0	44431	12.15	3
0	44432	12.15	5
0	44433	12.15	3
0	44434	12.15	5
0	44435	12.15	8
0	44436	12.15	5
0	44437	12.15	3
0	44438	12.15	5
0	44439	12.15	3
0	44440	12.15	1
0	44441	12.15	1
0	44670	12.2	3
0	44671	12.2	5
0	44672	12.2	3
0	44673	12.2	5
0	44674	12.2	8
0	44675	12.2	5
0	44676	12.2	3
0	44677	12.2	5
0	44678	12.2	3
0	44679	12.2	1
0	44680	12.2	1
0	44682	12.2	3
0	44683	12.2	5
0	44684	12.2	3
0	44685	12.2	5
0	44686	12.2	8
0	44687	12.2	5
0	44688	12.2	3
0	44689	12.2	5
0	44690	12.2	3
0	44691	12.2	1
0	44692	12.2	1
0	44963	12.25	3
0	44964	12.25	5
0	44965	12.25	3
0	44966	12.25	5
0	44967	12.25	8
0	44968	12.25	5
0	44969	12.25	3
0	44970	12.25	5
0	44971	12.25	3
0	44972	12.25	1
0	44973	12.25	1
0	45193	12.3	3
0	45194	12.3	5
0	45195	12.3	3
0	45196	12.3	5
0	45197	12.3	8
0	45198	12.3	5
0	45199	12.3	3
0	45200	12.3	5
0	45201	12.3	3
0	45202	12.3	1
0	45203	12.3	1
0	45205	12.3	3
0	45206	12.3	5
0	45207	12.3	3
0	45208	12.3	5
0	45209	12.3	8
0	45210	12.3	5
0	45211	12.3	3
0	45212	12.3	5
0	45213	12.3	3
0	45214	12.3	1
0	45215	12.3	1
0	45418	12.35	3
0	45419	12.35	5
0	45420	12.35	3
0	45421	12.35	5
0	45422	12.35	8
0	45423	12.35	5
0	45424	12.35	3
0	45425	12.35	5
0	45426	12.35	3
0	45427	12.35	1
0	45428	12.35	1
0	45543	12.4	3
0	45544	12.4	5
0	45545	12.4	3
0	45546	12.4	5
0	45547	12.4	8
0	45548	12.4	5
0	45549	12.4	3
0	45550	12.4	5
0	45551	12.4	3
0	45552	12.4	1
0	45553	12.4	1
0	45555	12.4	3
0	45556	12.4	5
0	45557	12.4	3
0	45558	12.4	5
0	45559	12.4	8
0	45560	12.4	5
0	45561	12.4	3
0	45562	12.4	5
0	45563	12.4	3
0	45564	12.4	1
0	45565	12.4	1
0	45676	12.45	3
0	45677	12.45	5
0	45678	12.45	3
0	45679	12.45	5
0	45680	12.45	8
0	45681	12.45	5
0	45682	12.45	3
0	45683	12.45	5
0	45684	12.45	3
0	45685	12.45	1
0	45686	12.45	1
0	45838	12.5	3
0	45839	12.5	5
0	45840	12.5	3
0	45841	12.5	5
0	45842	12.5	8
0	45843	12.5	5
0	45844	12.5	3
0	45845	12.5	5
0	45846	12.5	3
0	45847	12.5	1
0	45848	12.5	1
0	45850	12.5	3
0	45851	12.5	5
0	45852	12.5	3
0	45853	12.5	5
0	45854	12.5	8
0	45855	12.5	5
0	45856	12.5	3
0	45857	12.5	5
0	45858	12.5	3
0	45859	12.5	1
0	45860	12.5	1
0	46022	12.55	3
0	46023	12.55	5
0	46024	12.55	3
0	46025	12.55	5
0	46026	12.55	8
0	46027	12.55	5
0	46028	12.55	3
0	46029	12.55	5
0	46030	12.55	3
0	46031	12.55	1
0	46032	12.55	1
0	46144	12.6	3
0	46145	12.6	5
0	46146	12.6	3
0	46147	12.6	5
0	46148	12.6	8
0	46149	12.6	5
0	46150	12.6	3
0	46151	12.6	5
0	46152	12.6	3
0	46153	12.6	1
0	46154	12.6	1
0	46156	12.6	3
0	46157	12.6	5
0	46158	12.6	3
0	46159	12.6	5
0	46160	12.6	8
0	46161	12.6	5
0	46162	12.6	3
0	46163	12.6	5
0	46164	12.6	3
0	46165	12.6	1
0	46166	12.6	1
0	46399	12.65	3
0	46400	12.65	5
0	46401	12.65	3
0	46402	12.65	5
0	46403	12.65	8
0	46404	12.65	5
0	46405	12.65	3
0	46406	12.65	5
0	46407	12.65	3
0	46408	12.65	1
0	46409	12.65	1
0	46800	12.7	3
0	46801	12.7	5
0	46802	12.7	3
0	46803	12.7	5
0	46804	12.7	8
0	46805	12.7	5
0	46806	12.7	3
0	46807	12.7	5
0	46808	12.7	3
0	46809	12.7	1
0	46810	12.7	1
0	46812	12.7	3
0	46813	12.7	5
0	46814	12.7	3
0	46815	12.7	5
0	46816	12.7	8
0	46817	12.7	5
0	46818	12.7	3
0	46819	12.7	5
0	46820	12.7	3
0	46821	12.7	1
0	46822	12.7	1
0	47078	12.75	3
0	47079	12.75	5
0	47080	12.75	3
0	47081	12.75	5
0	47082	12.75	8
0	47083	12.75	5
0	47084	12.75	3
0	47085	12.75	5
0	47086	12.75	3
0	47087	12.75	1
0	47088	12.75	1
0	47288	12.8	3
0	47289	12.8	5
0	47290	12.8	3
0	47291	12.8	5
0	47292	12.8	8
0	47293	12.8	5
0	47294	12.8	3
0	47295	12.8	5
0	47296	12.8	3
0	47297	12.8	1
0	47298	12.8	1
0	47300	12.8	3
0	47301	12.8	5
0	47302	12.8	3
0	47303	12.8	5
0	47304	12.8	8
0	47305	12.8	5
0	47306	12.8	3
0	47307	12.8	5
0	47308	12.8	3
0	47309	12.8	1
0	47310	12.8	1
0	47568	12.85	3
0	47569	12.85	5
0	47570	12.85	3
0	47571	12.85	5
0	47572	12.85	8
0	47573	12.85	5
0	47574	12.85	3
0	47575	12.85	5
0	47576	12.85	3
0	47577	12.85	1
0	47578	12.85	1
0	47732	12.9	3
0	47733	12.9	5
0	47734	12.9	3
0	47735	12.9	5
0	47736	12.9	8
0	47737	12.9	5
0	47738	12.9	3
0	47739	12.9	5
0	47740	12.9	3
0	47741	12.9	1
0	47742	12.9	1
0	47744	12.9	3
0	47745	12.9	5
0	47746	12.9	3
0	47747	12.9	5
0	47748	12.9	8
0	47749	12.9	5
0	47750	12.9	3
0	47751	12.9	5
0	47752	12.9	3
0	47753	12.9	1
0	47754	12.9	1
0	47949	12.95	3
0	47950	12.95	5
0	47951	12.95	3
0	47952	12.95	5
0	47953	12.95	8
0	47954	12.95	5
0	47955	12.95	3
0	47956	12.95	5
0	47957	12.95	3
0	47958	12.95	1
0	47959	12.95	1
0	48073	13	3
0	48074	13	5
0	48075	13	3
0	48076	13	5
0	48077	13	8
0	48078	13	5
0	48079	13	3
0	48080	13	5
0	48081	13	3
0	48082	13	1
0	48083	13	1
0	48085	13	3
0	48086	13	5
0	48087	13	3
0	48088	13	5
0	48089	13	8
0	48090	13	5
0	48091	13	3
0	48092	13	5
0	48093	13	3
0	48094	13	1
0	48095	13	1
0	48280	13.05	3
0	48281	13.05	5
0	48282	13.05	3
0	48283	13.05	5
0	48284	13.05	8
0	48285	13.05	5
0	48286	13.05	3
0	48287	13.05	5
0	48288	13.05	3
0	48289	13.05	1
0	48290	13.05	1
0	48457	13.1	3
0	48458	13.1	5
0	48459	13.1	3
0	48460	13.1	5
0	48461	13.1	8
0	48462	13.1	5
0	48463	13.1	3
0	48464	13.1	5
0	48465	13.1	3
0	48466	13.1	1
0	48467	13.1	1
0	48469	13.1	3
0	48470	13.1	5
0	48471	13.1	3
0	48472	13.1	5
0	48473	13.1	8
0	48474	13.1	5
0	48475	13.1	3
0	48476	13.1	5
0	48477	13.1	3
0	48478	13.1	1
0	48479	13.1	1
0	48626	13.15	3
0	48627	13.15	5
0	48628	13.15	3
0	48629	13.15	5
0	48630	13.15	8
0	48631	13.15	5
0	48632	13.15	3
0	48633	13.15	5
0	48634	13.15	3
0	48635	13.15	1
0	48636	13.15	1
0	48809	13.2	3
0	48810	13.2	5
0	48811	13.2	3
0	48812	13.2	5
0	48813	13.2	8
0	48814	13.2	5
0	48815	13.2	3
0	48816	13.2	5
0	48817	13.2	3
0	48818	13.2	1
0	48819	13.2	1
0	48821	13.2	3
0	48822	13.2	5
0	48823	13.2	3
0	48824	13.2	5
0	48825	13.2	8
0	48826	13.2	5
0	48827	13.2	3
0	48828	13.2	5
0	48829	13.2	3
0	48830	13.2	1
0	48831	13.2	1
0	49222	13.25	3
0	49223	13.25	5
0	49224	13.25	3
0	49225	13.25	5
0	49226	13.25	8
0	49227	13.25	5
0	49228	13.25	3
0	49229	13.25	5
0	49230	13.25	3
0	49231	13.25	1
0	49232	13.25	1
0	49432	13.3	3
0	49433	13.3	5
0	49434	13.3	3
0	49435	13.3	5
0	49436	13.3	8
0	49437	13.3	5
0	49438	13.3	3
0	49439	13.3	5
0	49440	13.3	3
0	49441	13.3	1
0	49442	13.3	1
0	49444	13.3	3
0	49445	13.3	5
0	49446	13.3	3
0	49447	13.3	5
0	49448	13.3	8
0	49449	13.3	5
0	49450	13.3	3
0	49451	13.3	5
0	49452	13.3	3
0	49453	13.3	1
0	49454	13.3	1
0	49616	13.35	3
0	49617	13.35	5
0	49618	13.35	3
0	49619	13.35	5
0	49620	13.35	8
0	49621	13.35	5
0	49622	13.35	3
0	49623	13.35	5
0	49624	13.35	3
0	49625	13.35	1
0	49626	13.35	1
0	49810	13.4	3
0	49811	13.4	5
0	49812	13.4	3
0	49813	13.4	5
0	49814	13.4	8
0	49815	13.4	5
0	49816	13.4	3
0	49817	13.4	5
0	49818	13.4	3
0	49819	13.4	1
0	49820	13.4	1
0	49822	13.4	3
0	49823	13.4	5
0	49824	13.4	3
0	49825	13.4	5
0	49826	13.4	8
0	49827	13.4	5
0	49828	13.4	3
0	49829	13.4	5
0	49830	13.4	3
0	49831	13.4	1
0	49832	13.4	1
0	49948	13.45	3
0	49949	13.45	5
0	49950	13.45	3
0	49951	13.45	5
0	49952	13.45	8
0	49953	13.45	5
0	49954	13.45	3
0	49955	13.45	5
0	49956	13.45	3
0	49957	13.45	1
0	49958	13.45	1
0	50091	13.5	3
0	50092	13.5	5
0	50093	13.5	3
0	50094	13.5	5
0	50095	13.5	8
0	50096	13.5	5
0	50097	13.5	3
0	50098	13.5	5
0	50099	13.5	3
0	50100	13.5	1
0	50101	13.5	1
0	50103	13.5	3
0	50104	13.5	5
0	50105	13.5	3
0	50106	13.5	5
0	50107	13.5	8
0	50108	13.5	5
0	50109	13.5	3
0	50110	13.5	5
0	50111	13.5	3
0	50112	13.5	1
0	50113	13.5	1
0	50224	13.55	3
0	50225	13.55	5
0	50226	13.55	3
0	50227	13.55	5
0	50228	13.55	8
0	50229	13.55	5
0	50230	13.55	3
0	50231	13.55	5
0	50232	13.55	3
0	50233	13.55	1
0	50234	13.55	1
0	50368	13.6	3
0	50369	13.6	5
0	50370	13.6	3
0	50371	13.6	5
0	50372	13.6	8
0	50373	13.6	5
0	50374	13.6	3
0	50375	13.6	5
0	50376	13.6	3
0	50377	13.6	1
0	50378	13.6	1
0	50380	13.6	3
0	50381	13.6	5
0	50382	13.6	3
0	50383	13.6	5
0	50384	13.6	8
0	50385	13.6	5
0	50386	13.6	3
0	50387	13.6	5
0	50388	13.6	3
0	50389	13.6	1
0	50390	13.6	1
0	50501	13.65	3
0	50502	13.65	5
0	50503	13.65	3
0	50504	13.65	5
0	50505	13.65	8
0	50506	13.65	5
0	50507	13.65	3
0	50508	13.65	5
0	50509	13.65	3
0	50510	13.65	1
0	50511	13.65	1
0	50623	13.7	3
0	50624	13.7	5
0	50625	13.7	3
0	50626	13.7	5
0	50627	13.7	8
0	50628	13.7	5
0	50629	13.7	3
0	50630	13.7	5
0	50631	13.7	3
0	50632	13.7	1
0	50633	13.7	1
0	50635	13.7	3
0	50636	13.7	5
0	50637	13.7	3
0	50638	13.7	5
0	50639	13.7	8
0	50640	13.7	5
0	50641	13.7	3
0	50642	13.7	5
0	50643	13.7	3
0	50644	13.7	1
0	50645	13.7	1
0	50849	13.75	3
0	50850	13.75	5
0	50851	13.75	3
0	50852	13.75	5
0	50853	13.75	8
0	50854	13.75	5
0	50855	13.75	3
0	50856	13.75	5
0	50857	13.75	3
0	50858	13.75	1
0	50859	13.75	1
0	51168	13.8	3
0	51169	13.8	5
0	51170	13.8	3
0	51171	13.8	5
0	51172	13.8	8
0	51173	13.8	5
0	51174	13.8	3
0	51175	13.8	5
0	51176	13.8	3
0	51177	13.8	1
0	51178	13.8	1
0	51180	13.8	3
0	51181	13.8	5
0	51182	13.8	3
0	51183	13.8	5
0	51184	13.8	8
0	51185	13.8	5
0	51186	13.8	3
0	51187	13.8	5
0	51188	13.8	3
0	51189	13.8	1
0	51190	13.8	1
0	51324	13.85	3
0	51325	13.85	5
0	51326	13.85	3
0	51327	13.85	5
0	51328	13.85	8
0	51329	13.85	5
0	51330	13.85	3
0	51331	13.85	5
0	51332	13.85	3
0	51333	13.85	1
0	51334	13.85	1
0	51492	13.9	3
0	51493	13.9	5
0	51494	13.9	3
0	51495	13.9	5
0	51496	13.9	8
0	51497	13.9	5
0	51498	13.9	3
0	51499	13.9	5
0	51500	13.9	3
0	51501	13.9	1
0	51502	13.9	1
0	51504	13.9	3
0	51505	13.9	5
0	51506	13.9	3
0	51507	13.9	5
0	51508	13.9	8
0	51509	13.9	5
0	51510	13.9	3
0	51511	13.9	5
0	51512	13.9	3
0	51513	13.9	1
0	51514	13.9	1
0	51688	13.95	3
0	51689	13.95	5
0	51690	13.95	3
0	51691	13.95	5
0	51692	13.95	8
0	51693	13.95	5
0	51694	13.95	3
0	51695	13.95	5
0	51696	13.95	3
0	51697	13.95	1
0	51698	13.95	1
0	51792	14	3
0	51793	14	5
0	51794	14	3
0	51795	14	5
0	51796	14	8
0	51797	14	5
0	51798	14	3
0	51799	14	5
0	51800	14	3
0	51801	14	1
0	51802	14	1
0	51804	14	3
0	51805	14	5
0	51806	14	3
0	51807	14	5
0	51808	14	8
0	51809	14	5
0	51810	14	3
0	51811	14	5
0	51812	14	3
0	51813	14	1
0	51814	14	1
0	51948	14.05	3
0	51949	14.05	5
0	51950	14.05	3
0	51951	14.05	5
0	51952	14.05	8
0	51953	14.05	5
0	51954	14.05	3
0	51955	14.05	5
0	51956	14.05	3
0	51957	14.05	1
0	51958	14.05	1
0	52058	14.1	3
0	52059	14.1	5
0	52060	14.1	3
0	52061	14.1	5
0	52062	14.1	8
0	52063	14.1	5
0	52064	14.1	3
0	52065	14.1	5
0	52066	14.1	3
0	52067	14.1	1
0	52068	14.1	1
0	52070	14.1	3
0	52071	14.1	5
0	52072	14.1	3
0	52073	14.1	5
0	52074	14.1	8
0	52075	14.1	5
0	52076	14.1	3
0	52077	14.1	5
0	52078	14.1	3
0	52079	14.1	1
0	52080	14.1	1
0	52214	14.15	3
0	52215	14.15	5
0	52216	14.15	3
0	52217	14.15	5
0	52218	14.15	8
0	52219	14.15	5
0	52220	14.15	3
0	52221	14.15	5
0	52222	14.15	3
0	52223	14.15	1
0	52224	14.15	1
0	52313	14.2	3
0	52314	14.2	5
0	52315	14.2	3
0	52316	14.2	5
0	52317	14.2	8
0	52318	14.2	5
0	52319	14.2	3
0	52320	14.2	5
0	52321	14.2	3
0	52322	14.2	1
0	52323	14.2	1
0	52325	14.2	3
0	52326	14.2	5
0	52327	14.2	3
0	52328	14.2	5
0	52329	14.2	8
0	52330	14.2	5
0	52331	14.2	3
0	52332	14.2	5
0	52333	14.2	3
0	52334	14.2	1
0	52335	14.2	1
0	52469	14.25	3
0	52470	14.25	5
0	52471	14.25	3
0	52472	14.25	5
0	52473	14.25	8
0	52474	14.25	5
0	52475	14.25	3
0	52476	14.25	5
0	52477	14.25	3
0	52478	14.25	1
0	52479	14.25	1
0	52635	14.3	3
0	52636	14.3	5
0	52637	14.3	3
0	52638	14.3	5
0	52639	14.3	8
0	52640	14.3	5
0	52641	14.3	3
0	52642	14.3	5
0	52643	14.3	3
0	52644	14.3	1
0	52645	14.3	1
0	52647	14.3	3
0	52648	14.3	5
0	52649	14.3	3
0	52650	14.3	5
0	52651	14.3	8
0	52652	14.3	5
0	52653	14.3	3
0	52654	14.3	5
0	52655	14.3	3
0	52656	14.3	1
0	52657	14.3	1
0	52996	14.35	3
0	52997	14.35	5
0	52998	14.35	3
0	52999	14.35	5
0	53000	14.35	8
0	53001	14.35	5
0	53002	14.35	3
0	53003	14.35	5
0	53004	14.35	3
0	53005	14.35	1
0	53006	14.35	1
0	53141	14.4	3
0	53142	14.4	5
0	53143	14.4	3
0	53144	14.4	5
0	53145	14.4	8
0	53146	14.4	5
0	53147	14.4	3
0	53148	14.4	5
0	53149	14.4	3
0	53150	14.4	1
0	53151	14.4	1
0	53153	14.4	3
0	53154	14.4	5
0	53155	14.4	3
0	53156	14.4	5
0	53157	14.4	8
0	53158	14.4	5
0	53159	14.4	3
0	53160	14.4	5
0	53161	14.4	3
0	53162	14.4	1
0	53163	14.4	1
0	53343	14.45	3
0	53344	14.45	5
0	53345	14.45	3
0	53346	14.45	5
0	53347	14.45	8
0	53348	14.45	5
0	53349	14.45	3
0	53350	14.45	5
0	53351	14.45	3
0	53352	14.45	1
0	53353	14.45	1
0	53532	14.5	3
0	53533	14.5	5
0	53534	14.5	3
0	53535	14.5	5
0	53536	14.5	8
0	53537	14.5	5
0	53538	14.5	3
0	53539	14.5	5
0	53540	14.5	3
0	53541	14.5	1
0	53542	14.5	1
0	53544	14.5	3
0	53545	14.5	5
0	53546	14.5	3
0	53547	14.5	5
0	53548	14.5	8
0	53549	14.5	5
0	53550	14.5	3
0	53551	14.5	5
0	53552	14.5	3
0	53553	14.5	1
0	53554	14.5	1
0	53688	14.55	3
0	53689	14.55	5
0	53690	14.55	3
0	53691	14.55	5
0	53692	14.55	8
0	53693	14.55	5
0	53694	14.55	3
0	53695	14.55	5
0	53696	14.55	3
0	53697	14.55	1
0	53698	14.55	1
0	53854	14.6	3
0	53855	14.6	5
0	53856	14.6	3
0	53857	14.6	5
0	53858	14.6	8
0	53859	14.6	5
0	53860	14.6	3
0	53861	14.6	5
0	53862	14.6	3
0	53863	14.6	1
0	53864	14.6	1
0	53866	14.6	3
0	53867	14.6	5
0	53868	14.6	3
0	53869	14.6	5
0	53870	14.6	8
0	53871	14.6	5
0	53872	14.6	3
0	53873	14.6	5
0	53874	14.6	3
0	53875	14.6	1
0	53876	14.6	1
0	54027	14.65	3
0	54028	14.65	5
0	54029	14.65	3
0	54030	14.65	5
0	54031	14.65	8
0	54032	14.65	5
0	54033	14.65	3
0	54034	14.65	5
0	54035	14.65	3
0	54036	14.65	1
0	54037	14.65	1
0	54195	14.7	3
0	54196	14.7	5
0	54197	14.7	3
0	54198	14.7	5
0	54199	14.7	8
0	54200	14.7	5
0	54201	14.7	3
0	54202	14.7	5
0	54203	14.7	3
0	54204	14.7	1
0	54205	14.7	1
0	54207	14.7	3
0	54208	14.7	5
0	54209	14.7	3
0	54210	14.7	5
0	54211	14.7	8
0	54212	14.7	5
0	54213	14.7	3
0	54214	14.7	5
0	54215	14.7	3
0	54216	14.7	1
0	54217	14.7	1
0	54370	14.75	3
0	54371	14.75	5
0	54372	14.75	3
0	54373	14.75	5
0	54374	14.75	8
0	54375	14.75	5
0	54376	14.75	3
0	54377	14.75	5
0	54378	14.75	3
0	54379	14.75	1
0	54380	14.75	1
0	54559	14.8	3
0	54560	14.8	5
0	54561	14.8	3
0	54562	14.8	5
0	54563	14.8	8
0	54564	14.8	5
0	54565	14.8	3
0	54566	14.8	5
0	54567	14.8	3
0	54568	14.8	1
0	54569	14.8	1
0	54571	14.8	3
0	54572	14.8	5
0	54573	14.8	3
0	54574	14.8	5
0	54575	14.8	8
0	54576	14.8	5
0	54577	14.8	3
0	54578	14.8	5
0	54579	14.8	3
0	54580	14.8	1
0	54581	14.8	1
0	54820	14.85	3
0	54821	14.85	5
0	54822	14.85	3
0	54823	14.85	5
0	54824	14.85	8
0	54825	14.85	5
0	54826	14.85	3
0	54827	14.85	5
0	54828	14.85	3
0	54829	14.85	1
0	54830	14.85	1
0	55149	14.9	3
0	55150	14.9	5
0	55151	14.9	3
0	55152	14.9	5
0	55153	14.9	8
0	55154	14.9	5
0	55155	14.9	3
0	55156	14.9	5
0	55157	14.9	3
0	55158	14.9	1
0	55159	14.9	1
0	55161	14.9	3
0	55162	14.9	5
0	55163	14.9	3
0	55164	14.9	5
0	55165	14.9	8
0	55166	14.9	5
0	55167	14.9	3
0	55168	14.9	5
0	55169	14.9	3
0	55170	14.9	1
0	55171	14.9	1
0	55327	14.95	3
0	55328	14.95	5
0	55329	14.95	3
0	55330	14.95	5
0	55331	14.95	8
0	55332	14.95	5
0	55333	14.95	3
0	55334	14.95	5
0	55335	14.95	3
0	55336	14.95	1
0	55337	14.95	1
0	55495	15	3
0	55496	15	5
0	55497	15	3
0	55498	15	5
0	55499	15	8
0	55500	15	5
0	55501	15	3
0	55502	15	5
0	55503	15	3
0	55504	15	1
0	55505	15	1
0	55507	15	3
0	55508	15	5
0	55509	15	3
0	55510	15	5
0	55511	15	8
0	55512	15	5
0	55513	15	3
0	55514	15	5
0	55515	15	3
0	55516	15	1
0	55517	15	1
0	55714	15.05	3
0	55715	15.05	5
0	55716	15.05	3
0	55717	15.05	5
0	55718	15.05	8
0	55719	15.05	5
0	55720	15.05	3
0	55721	15.05	5
0	55722	15.05	3
0	55723	15.05	1
0	55724	15.05	1
0	55824	15.1	3
0	55825	15.1	5
0	55826	15.1	3
0	55827	15.1	5
0	55828	15.1	8
0	55829	15.1	5
0	55830	15.1	3
0	55831	15.1	5
0	55832	15.1	3
0	55833	15.1	1
0	55834	15.1	1
0	55836	15.1	3
0	55837	15.1	5
0	55838	15.1	3
0	55839	15.1	5
0	55840	15.1	8
0	55841	15.1	5
0	55842	15.1	3
0	55843	15.1	5
0	55844	15.1	3
0	55845	15.1	1
0	55846	15.1	1
0	56037	15.15	3
0	56038	15.15	5
0	56039	15.15	3
0	56040	15.15	5
0	56041	15.15	8
0	56042	15.15	5
0	56043	15.15	3
0	56044	15.15	5
0	56045	15.15	3
0	56046	15.15	1
0	56047	15.15	1
0	56164	15.2	3
0	56165	15.2	5
0	56166	15.2	3
0	56167	15.2	5
0	56168	15.2	8
0	56169	15.2	5
0	56170	15.2	3
0	56171	15.2	5
0	56172	15.2	3
0	56173	15.2	1
0	56174	15.2	1
0	56176	15.2	3
0	56177	15.2	5
0	56178	15.2	3
0	56179	15.2	5
0	56180	15.2	8
0	56181	15.2	5
0	56182	15.2	3
0	56183	15.2	5
0	56184	15.2	3
0	56185	15.2	1
0	56186	15.2	1
0	56346	15.25	3
0	56347	15.25	5
0	56348	15.25	3
0	56349	15.25	5
0	56350	15.25	8
0	56351	15.25	5
0	56352	15.25	3
0	56353	15.25	5
0	56354	15.25	3
0	56355	15.25	1
0	56356	15.25	1
0	56468	15.3	3
0	56469	15.3	5
0	56470	15.3	3
0	56471	15.3	5
0	56472	15.3	8
0	56473	15.3	5
0	56474	15.3	3
0	56475	15.3	5
0	56476	15.3	3
0	56477	15.3	1
0	56478	15.3	1
0	56480	15.3	3
0	56481	15.3	5
0	56482	15.3	3
0	56483	15.3	5
0	56484	15.3	8
0	56485	15.3	5
0	56486	15.3	3
0	56487	15.3	5
0	56488	15.3	3
0	56489	15.3	1
0	56490	15.3	1
0	56674	15.35	3
0	56675	15.35	5
0	56676	15.35	3
0	56677	15.35	5
0	56678	15.35	8
0	56679	15.35	5
0	56680	15.35	3
0	56681	15.35	5
0	56682	15.35	3
0	56683	15.35	1
0	56684	15.35	1
0	56880	15.4	3
0	56881	15.4	5
0	56882	15.4	3
0	56883	15.4	5
0	56884	15.4	8
0	56885	15.4	5
0	56886	15.4	3
0	56887	15.4	5
0	56888	15.4	3
0	56889	15.4	1
0	56890	15.4	1
0	56892	15.4	3
0	56893	15.4	5
0	56894	15.4	3
0	56895	15.4	5
0	56896	15.4	8
0	56897	15.4	5
0	56898	15.4	3
0	56899	15.4	5
0	56900	15.4	3
0	56901	15.4	1
0	56902	15.4	1
0	57264	15.45	3
0	57265	15.45	5
0	57266	15.45	3
0	57267	15.45	5
0	57268	15.45	8
0	57269	15.45	5
0	57270	15.45	3
0	57271	15.45	5
0	57272	15.45	3
0	57273	15.45	1
0	57274	15.45	1
0	57409	15.5	3
0	57410	15.5	5
0	57411	15.5	3
0	57412	15.5	5
0	57413	15.5	8
0	57414	15.5	5
0	57415	15.5	3
0	57416	15.5	5
0	57417	15.5	3
0	57418	15.5	1
0	57419	15.5	1
0	57421	15.5	3
0	57422	15.5	5
0	57423	15.5	3
0	57424	15.5	5
0	57425	15.5	8
0	57426	15.5	5
0	57427	15.5	3
0	57428	15.5	5
0	57429	15.5	3
0	57430	15.5	1
0	57431	15.5	1
0	57611	15.55	3
0	57612	15.55	5
0	57613	15.55	3
0	57614	15.55	5
0	57615	15.55	8
0	57616	15.55	5
0	57617	15.55	3
0	57618	15.55	5
0	57619	15.55	3
0	57620	15.55	1
0	57621	15.55	1
0	57818	15.6	3
0	57819	15.6	5
0	57820	15.6	3
0	57821	15.6	5
0	57822	15.6	8
0	57823	15.6	5
0	57824	15.6	3
0	57825	15.6	5
0	57826	15.6	3
0	57827	15.6	1
0	57828	15.6	1
0	57830	15.6	3
0	57831	15.6	5
0	57832	15.6	3
0	57833	15.6	5
0	57834	15.6	8
0	57835	15.6	5
0	57836	15.6	3
0	57837	15.6	5
0	57838	15.6	3
0	57839	15.6	1
0	57840	15.6	1
0	57951	15.65	3
0	57952	15.65	5
0	57953	15.65	3
0	57954	15.65	5
0	57955	15.65	8
0	57956	15.65	5
0	57957	15.65	3
0	57958	15.65	5
0	57959	15.65	3
0	57960	15.65	1
0	57961	15.65	1
0	58078	15.7	3
0	58079	15.7	5
0	58080	15.7	3
0	58081	15.7	5
0	58082	15.7	8
0	58083	15.7	5
0	58084	15.7	3
0	58085	15.7	5
0	58086	15.7	3
0	58087	15.7	1
0	58088	15.7	1
0	58090	15.7	3
0	58091	15.7	5
0	58092	15.7	3
0	58093	15.7	5
0	58094	15.7	8
0	58095	15.7	5
0	58096	15.7	3
0	58097	15.7	5
0	58098	15.7	3
0	58099	15.7	1
0	58100	15.7	1
0	58256	15.75	3
0	58257	15.75	5
0	58258	15.75	3
0	58259	15.75	5
0	58260	15.75	8
0	58261	15.75	5
0	58262	15.75	3
0	58263	15.75	5
0	58264	15.75	3
0	58265	15.75	1
0	58266	15.75	1
0	58378	15.8	3
0	58379	15.8	5
0	58380	15.8	3
0	58381	15.8	5
0	58382	15.8	8
0	58383	15.8	5
0	58384	15.8	3
0	58385	15.8	5
0	58386	15.8	3
0	58387	15.8	1
0	58388	15.8	1
0	58390	15.8	3
0	58391	15.8	5
0	58392	15.8	3
0	58393	15.8	5
0	58394	15.8	8
0	58395	15.8	5
0	58396	15.8	3
0	58397	15.8	5
0	58398	15.8	3
0	58399	15.8	1
0	58400	15.8	1
0	58511	15.85	3
0	58512	15.85	5
0	58513	15.85	3
0	58514	15.85	5
0	58515	15.85	8
0	58516	15.85	5
0	58517	15.85	3
0	58518	15.85	5
0	58519	15.85	3
0	58520	15.85	1
0	58521	15.85	1
0	58655	15.9	3
0	58656	15.9	5
0	58657	15.9	3
0	58658	15.9	5
0	58659	15.9	8
0	58660	15.9	5
0	58661	15.9	3
0	58662	15.9	5
0	58663	15.9	3
0	58664	15.9	1
0	58665	15.9	1
0	58667	15.9	3
0	58668	15.9	5
0	58669	15.9	3
0	58670	15.9	5
0	58671	15.9	8
0	58672	15.9	5
0	58673	15.9	3
0	58674	15.9	5
0	58675	15.9	3
0	58676	15.9	1
0	58677	15.9	1
0	58892	15.95	3
0	58893	15.95	5
0	58894	15.95	3
0	58895	15.95	5
0	58896	15.95	8
0	58897	15.95	5
0	58898	15.95	3
0	58899	15.95	5
0	58900	15.95	3
0	58901	15.95	1
0	58902	15.95	1
0	59218	16	3
0	59219	16	5
0	59220	16	3
0	59221	16	5
0	59222	16	8
0	59223	16	5
0	59224	16	3
0	59225	16	5
0	59226	16	3
0	59227	16	1
0	59228	16	1
0	59230	16	3
0	59231	16	5
0	59232	16	3
0	59233	16	5
0	59234	16	8
0	59235	16	5
0	59236	16	3
0	59237	16	5
0	59238	16	3
0	59239	16	1
0	59240	16	1
0	59391	16.05	3
0	59392	16.05	5
0	59393	16.05	3
0	59394	16.05	5
0	59395	16.05	8
0	59396	16.05	5
0	59397	16.05	3
0	59398	16.05	5
0	59399	16.05	3
0	59400	16.05	1
0	59401	16.05	1
0	59575	16.1	3
0	59576	16.1	5
0	59577	16.1	3
0	59578	16.1	5
0	59579	16.1	8
0	59580	16.1	5
0	59581	16.1	3
0	59582	16.1	5
0	59583	16.1	3
0	59584	16.1	1
0	59585	16.1	1
0	59587	16.1	3
0	59588	16.1	5
0	59589	16.1	3
0	59590	16.1	5
0	59591	16.1	8
0	59592	16.1	5
0	59593	16.1	3
0	59594	16.1	5
0	59595	16.1	3
0	59596	16.1	1
0	59597	16.1	1
0	59847	16.15	3
0	59848	16.15	5
0	59849	16.15	3
0	59850	16.15	5
0	59851	16.15	8
0	59852	16.15	5
0	59853	16.15	3
0	59854	16.15	5
[...]
3	203651	53.502864192201	109557
3	203717	53.533626728067	109698
3	203736	53.547466728067	109839
3	203858	53.561306728067	109980
3	204260	53.693584192201	110121
3	206245	54.243584192201	110262
3	206705	54.383626728067	110403
3	207107	54.48342031478	110544
3	207118	54.483626728067	110685
3	207348	54.53342031478	110826
3	207537	54.583626728067	110967
3	207737	54.633626728067	111108
3	207756	54.647466728067	111249
3	208415	54.83396899642	111390
3	209514	55.133626728067	111531
3	209686	55.197466728067	111672
3	209841	55.211306728067	111813
3	210215	55.343584192201	111954
3	210703	55.483626728067	112095
3	211111	55.58342031478	112236
3	211122	55.583626728067	112377
3	211356	55.63342031478	112518
3	211700	55.733626728067	112659
3	213069	56.13342031478	112800
3	213275	56.18342031478	112941
3	213517	56.233626728067	113082
3	213527	56.23396899642	113223
3	213554	56.24780899642	113364
3	213678	56.26164899642	113505
3	213743	56.27548899642	113646
3	213762	56.286401530515	113787
3	213781	56.28932899642	113928
3	213941	56.30316899642	114069
3	213996	56.31700899642	114210
3	214042	56.33084899642	114351
3	214056	56.34468899642	114492
3	214176	56.35852899642	114633
3	214417	56.443584192201	114774
3	214878	56.583626728067	114915
3	215873	56.833626728067	115056
3	216872	57.133626728067	115197
3	217109	57.188218386173	115338
3	217267	57.202058386173	115479
3	217371	57.23342031478	115620
3	217577	57.28342031478	115761
3	217799	57.333626728067	115902
3	217989	57.383626728067	116043
3	218008	57.397466728067	116184
3	219586	57.84780899642	116325
3	219710	57.86164899642	116466
3	220465	58.093584192201	116607
3	220982	58.233626728067	116748
3	221399	58.33342031478	116889
3	221617	58.38342031478	117030
3	221628	58.38396899642	117171
3	221655	58.39780899642	117312
3	221812	58.41164899642	117453
3	221873	58.433626728067	117594
3	222063	58.483626728067	117735
3	222082	58.497466728067	117876
3	222622	58.643584192201	118017
3	225058	59.333626728067	118158
3	225464	59.43342031478	118299
3	225684	59.48342031478	118440
3	226069	59.598426728067	118581
3	226311	59.633626728067	118722
3	226329	59.647466728067	118863
3	227871	60.088218386173	119004
3	228097	60.133626728067	119145
3	228116	60.147466728067	119286
3	228242	60.161306728067	119427
3	228347	60.183626728067	119568
3	229145	60.433626728067	119709
3	229495	60.51164899642	119850
3	229578	60.53342031478	119991
3	229606	60.53932899642	120132
3	229733	60.55316899642	120273
3	229855	60.58342031478	120414
3	229892	60.593726529761	120555
3	230111	60.621406529761	120696
3	230125	60.635246529761	120837
3	230144	60.649086529761	120978
3	230315	60.683626728067	121119
3	230477	60.711306728067	121260
3	230729	60.783626728067	121401
3	230748	60.797466728067	121542
3	232009	61.13342031478	121683
3	232255	61.188218386173	121824
3	232407	61.202058386173	121965
3	232454	61.233626728067	122106
3	232473	61.247466728067	122247
3	232597	61.261306728067	122388
3	232681	61.275146728067	122529
3	232700	61.283626728067	122670
3	232898	61.333626728067	122811
3	233840	61.63342031478	122952
3	235704	62.18342031478	123093
3	235920	62.23342031478	123234
3	236160	62.288266728067	123375
3	236503	62.383626728067	123516
3	236711	62.433626728067	123657
3	238698	63.03396899642	123798
3	238822	63.07548899642	123939
3	238836	63.08932899642	124080
3	239006	63.10316899642	124221
3	239020	63.11700899642	124362
3	239486	63.28342031478	124503
3	239708	63.33342031478	124644
3	239931	63.398272534095	124785
3	239941	63.398426728067	124926
3	240094	63.412266728067	125067
3	240116	63.426106728067	125208
3	242135	64.048426728067	125349
3	242826	64.23396899642	125490
3	242839	64.24780899642	125631
3	242960	64.26164899642	125772
3	243020	64.27548899642	125913
3	243033	64.28932899642	126054
3	243187	64.30316899642	126195
3	243229	64.31700899642	126336
3	243410	64.38342031478	126477
3	243646	64.43342031478	126618
3	243858	64.483626728067	126759
3	243860	64.483626728067	126900
3	243889	64.497466728067	127041
3	244041	64.511306728067	127182
3	244060	64.525146728067	127323
3	244254	64.583626728067	127464
3	246116	65.133626728067	127605
3	247173	65.48342031478	127746
3	247428	65.53342031478	127887
3	247908	65.683626728067	128028
3	247927	65.697466728067	128169
3	248078	65.711306728067	128310
3	248453	65.83396899642	128451
3	248471	65.84780899642	128592
3	248591	65.87548899642	128733
3	248604	65.88932899642	128874
3	249923	66.233626728067	129015
3	249925	66.233626728067	129156
3	251005	66.58342031478	129297
3	251277	66.63342031478	129438
3	251288	66.633626728067	129579
3	251315	66.647466728067	129720
3	252187	66.893584192201	129861
3	252342	66.907424192201	130002
3	252385	66.921264192201	130143
3	252407	66.948944192201	130284
3	252527	66.962784192201	130425
3	252558	66.976624192201	130566
3	252718	67.004304192201	130707
3	252773	67.018144192201	130848
3	252810	67.031984192201	130989
3	252829	67.045824192201	131130
3	252951	67.059664192201	131271
3	252991	67.073504192201	131412
3	253032	67.092032534095	131553
3	253208	67.105872534095	131694
3	253362	67.13342031478	131835
3	253579	67.18342031478	131976
3	254142	67.333626728067	132117
3	254144	67.333626728067	132258
3	254605	67.483626728067	132399
3	254623	67.488456785734	132540
3	254782	67.502296785734	132681
3	254824	67.516136785734	132822
3	254860	67.529976785734	132963
3	257264	68.23342031478	133104
3	257476	68.28342031478	133245
3	258032	68.433626728067	133386
3	258218	68.493584192201	133527
3	258374	68.507424192201	133668
3	258417	68.521264192201	133809
3	258436	68.535104192201	133950
3	258455	68.548944192201	134091
3	258575	68.562784192201	134232
3	258606	68.576624192201	134373
3	258625	68.590464192201	134514
3	258782	68.604304192201	134655
3	258817	68.618144192201	134796
3	258849	68.631984192201	134937
3	259417	68.783730596859	135078
3	259436	68.797570596859	135219
3	259876	68.89780899642	135360
3	260029	68.91164899642	135501
3	260049	68.93932899642	135642
3	260274	68.98084899642	135783
3	260450	69.02236899642	135924
3	260490	69.03620899642	136065
3	260610	69.05004899642	136206
3	260635	69.07772899642	136347
3	260654	69.09156899642	136488
3	260837	69.109955000754	136629
3	260880	69.133626728067	136770
3	260898	69.147466728067	136911
3	261643	69.33342031478	137052
3	261654	69.333730596859	137193
3	261883	69.38342031478	137334
3	262455	69.533626728067	137475
3	262626	69.593584192201	137616
3	262779	69.607424192201	137757
3	262810	69.621264192201	137898
3	262829	69.635104192201	138039
3	262991	69.681502591762	138180
3	264950	70.233626728067	138321
3	265691	70.43342031478	138462
3	265702	70.433730596859	138603
3	265899	70.48342031478	138744
3	266460	70.633626728067	138885
3	266462	70.633626728067	139026
3	266491	70.647466728067	139167
3	267951	71.057566529761	139308
3	268006	71.071406529761	139449
3	268025	71.085246529761	139590
3	268044	71.099086529761	139731
3	268219	71.112926529761	139872
3	268238	71.126766529761	140013
3	268409	71.168286529761	140154
3	268443	71.182126529761	140295
3	268454	71.183626728067	140436
3	268476	71.195966529761	140577
3	268630	71.223646529761	140718
3	268766	71.260512534095	140859
3	269713	71.53342031478	141000
3	269724	71.533730596859	141141
3	269921	71.58342031478	141282
3	270500	71.743584192201	141423
3	270620	71.757424192201	141564
3	270651	71.771264192201	141705
3	270670	71.785104192201	141846
3	271884	72.13342031478	141987
3	272373	72.293584192201	142128
3	272645	72.383626728067	142269
3	272663	72.397466728067	142410
3	273607	72.63342031478	142551
3	273618	72.633730596859	142692
3	274297	72.833626728067	142833
3	274316	72.847466728067	142974
3	274434	72.861306728067	143115
3	275509	73.18342031478	143256
3	275520	73.183626728067	143397
3	275755	73.23342031478	143538
3	276134	73.333626728067	143679
3	276136	73.333626728067	143820
3	276171	73.347466728067	143961
3	276173	73.347466728067	144102
3	277473	73.738456785734	144243
3	277590	73.752296785734	144384
3	277628	73.766136785734	144525
3	277660	73.779976785734	144666
3	277840	73.821496785734	144807
3	277859	73.835336785734	144948
3	277988	73.863016785734	145089
3	278055	73.876856785734	145230
3	278213	73.904536785734	145371
3	278284	73.93396899642	145512
3	278297	73.94780899642	145653
3	278414	73.96164899642	145794
3	278432	73.97548899642	145935
3	279447	74.28342031478	146076
3	279458	74.283626728067	146217
3	279688	74.33342031478	146358
3	280058	74.433626728067	146499
3	280080	74.443584192201	146640
3	280204	74.457424192201	146781
3	280268	74.471264192201	146922
3	280287	74.485104192201	147063
3	280306	74.498944192201	147204
3	280460	74.512784192201	147345
3	280537	74.540592534095	147486
3	280555	74.549982591762	147627
3	280678	74.554432534095	147768
3	280696	74.563822591762	147909
3	280738	74.568272534095	148050
3	280774	74.577662591762	148191
3	280813	74.591502591762	148332
3	282047	74.933626728067	148473
3	282234	74.993584192201	148614
3	282389	75.007424192201	148755
3	282441	75.021264192201	148896
3	282460	75.035104192201	149037
3	282479	75.048944192201	149178
3	282601	75.062784192201	149319
3	282653	75.076624192201	149460
3	283541	75.34780899642	149601
3	283750	75.38342031478	149742
3	283769	75.38932899642	149883
3	283926	75.40316899642	150024
3	283981	75.41700899642	150165
3	284018	75.43342031478	150306
3	284145	75.45852899642	150447
3	284209	75.47236899642	150588
3	284228	75.48620899642	150729
3	284470	75.533626728067	150870
3	284489	75.538266728067	151011
3	284833	75.633626728067	151152
3	285627	75.888456785734	151293
3	285786	75.902296785734	151434
3	285827	75.916136785734	151575
3	285876	75.929976785734	151716
3	285890	75.943816785734	151857
3	286014	75.957656785734	151998
3	286087	75.971496785734	152139
3	286364	76.033626728067	152280
3	286543	76.088266728067	152421
3	286951	76.183626728067	152562
3	287802	76.43396899642	152703
3	287821	76.44780899642	152844
3	287945	76.46164899642	152985
3	288020	76.47548899642	153126
3	288039	76.48342031478	153267
3	288058	76.48932899642	153408
3	288290	76.53342031478	153549
3	288723	76.633626728067	153690
3	288848	76.652106728067	153831
3	290543	77.133626728067	153972
3	290561	77.147466728067	154113
3	290763	77.183626728067	154254
3	290785	77.188266728067	154395
3	290943	77.202106728067	154536
3	290962	77.21164899642	154677
3	291016	77.22548899642	154818
3	291206	77.283626728067	154959
3	292169	77.58342031478	155100
3	292414	77.63342031478	155241
3	292779	77.738266728067	155382
3	292903	77.752106728067	155523
3	292958	77.765946728067	155664
3	293010	77.783626728067	155805
3	293029	77.797466728067	155946
3	293186	77.811306728067	156087
3	294158	78.13342031478	156228
3	294375	78.18342031478	156369
3	294730	78.288266728067	156510
3	294952	78.333626728067	156651
3	295141	78.383626728067	156792
3	296482	78.783626728067	156933
3	296503	78.79780899642	157074
3	296657	78.81164899642	157215
3	296720	78.82548899642	157356
3	296730	78.833626728067	157497
3	296749	78.838266728067	157638
3	296875	78.852106728067	157779
3	296942	78.865946728067	157920
3	298199	79.23342031478	158061
3	298410	79.28342031478	158202
3	298655	79.333626728067	158343
3	298797	79.383626728067	158484
3	299019	79.433626728067	158625
3	299213	79.483626728067	158766
3	300371	79.833626728067	158907
3	300389	79.847466728067	159048
3	300514	79.861306728067	159189
3	300922	79.952296785734	159330
3	300960	79.966136785734	159471
3	301000	79.993816785734	159612
3	301162	80.007656785734	159753
3	301222	80.021496785734	159894
3	301240	80.035336785734	160035
3	301258	80.049176785734	160176
3	301377	80.063016785734	160317
3	302032	80.283626728067	160458
3	302265	80.33342031478	160599
3	302287	80.34780899642	160740
3	302414	80.36164899642	160881
3	302502	80.37548899642	161022
3	302520	80.38342031478	161163
3	302531	80.383626728067	161304
3	302833	80.433626728067	161445
3	303401	80.583626728067	161586
3	303864	80.73396899642	161727
3	306088	81.383626728067	161868
3	306303	81.43342031478	162009
3	306506	81.48342031478	162150
3	306520	81.483730596859	162291
3	306527	81.48396899642	162432
3	306556	81.49780899642	162573
3	306716	81.51164899642	162714
3	306786	81.52548899642	162855
3	306804	81.53932899642	162996
3	306921	81.55316899642	163137
3	307772	81.83396899642	163278
3	308066	81.938456785734	163419
3	308189	81.952296785734	163560
3	308226	81.966136785734	163701
3	308265	81.979976785734	163842
3	309118	82.233626728067	163983
3	309136	82.247466728067	164124
3	309253	82.261306728067	164265
3	309832	82.483626728067	164406
3	310077	82.53342031478	164547
3	310243	82.59349835206	164688
3	310576	82.683626728067	164829
3	310594	82.697466728067	164970
3	311262	82.883626728067	165111
3	311281	82.897466728067	165252
3	312173	83.14349835206	165393
3	312847	83.333626728067	165534
3	313026	83.398426728067	165675
3	313181	83.412266728067	165816
3	313215	83.426106728067	165957
3	313234	83.439946728067	166098
3	313354	83.453786728067	166239
3	313385	83.467626728067	166380
3	313413	83.481466728067	166521
3	313432	83.495306728067	166662
3	313769	83.583626728067	166803
3	313968	83.63342031478	166944
3	314690	83.84876899642	167085
3	314812	83.86260899642	167226
3	314852	83.87644899642	167367
3	315008	83.90412899642	167508
3	315039	83.91796899642	167649
3	315674	84.133626728067	167790
3	315840	84.18342031478	167931
3	316085	84.24349835206	168072
3	316751	84.433626728067	168213
3	316918	84.488266728067	168354
3	317074	84.502106728067	168495
3	318207	84.833626728067	168636
3	318225	84.847466728067	168777
3	318718	84.983626728067	168918
3	318941	85.033730596859	169059
3	319695	85.233626728067	169200
3	319861	85.28342031478	169341
3	320117	85.33396899642	169482
3	320145	85.34349835206	169623
3	320164	85.34780899642	169764
3	320290	85.36164899642	169905
3	320356	85.37548899642	170046
3	320378	85.38932899642	170187
3	320531	85.40316899642	170328
3	320554	85.41700899642	170469
3	320585	85.43084899642	170610
3	320599	85.44468899642	170751
3	320716	85.45852899642	170892
3	321133	85.583730596859	171033
3	321152	85.588266728067	171174
3	322421	85.933626728067	171315
3	322596	85.98396899642	171456
3	322615	85.99780899642	171597
3	322771	86.01164899642	171738
3	322913	86.05316899642	171879
3	323220	86.133730596859	172020
3	323239	86.138266728067	172161
3	324079	86.38342031478	172302
3	324318	86.44349835206	172443
3	324484	86.483626728067	172584
3	324695	86.53396899642	172725
3	324844	86.57548899642	172866
3	324863	86.58932899642	173007
3	326143	86.93396899642	173148
3	326162	86.94780899642	173289
3	327214	87.233626728067	173430
3	327228	87.238266728067	173571
3	327398	87.288266728067	173712
3	327548	87.302106728067	173853
3	327561	87.315946728067	173994
3	327779	87.398426728067	174135
3	327934	87.412266728067	174276
3	328141	87.48342031478	174417
3	328411	87.54349835206	174558
3	329148	87.783626728067	174699
3	329347	87.838266728067	174840
3	331022	88.333626728067	174981
3	331188	88.388266728067	175122
3	331399	88.43396899642	175263
3	331413	88.44780899642	175404
3	331610	88.47548899642	175545
3	331629	88.483626728067	175686
3	331648	88.48932899642	175827
3	331992	88.58342031478	175968
3	332278	88.633626728067	176109
3	332305	88.64349835206	176250
3	332324	88.647466728067	176391
3	332967	88.833626728067	176532
3	333976	89.13342031478	176673
3	334227	89.183626728067	176814
3	334254	89.19349835206	176955
3	334903	89.383626728067	177096
3	335079	89.433626728067	177237
3	335268	89.488266728067	177378
3	335639	89.583626728067	177519
3	337611	90.133626728067	177660
3	337964	90.23342031478	177801
3	338209	90.283626728067	177942
3	338236	90.29349835206	178083
3	339219	90.58396899642	178224
3	339233	90.588266728067	178365
3	339390	90.61164899642	178506
3	339445	90.62548899642	178647
3	339459	90.63932899642	178788
3	339622	90.66700899642	178929
3	339668	90.68084899642	179070
3	340735	90.98396899642	179211
3	340761	90.99780899642	179352
3	340918	91.01164899642	179493
3	340983	91.02548899642	179634
3	341002	91.033626728067	179775
3	341021	91.038266728067	179916
3	341032	91.03932899642	180057
3	341158	91.05316899642	180198
3	341177	91.06700899642	180339
3	341366	91.10852899642	180480
3	341463	91.12236899642	180621
3	341482	91.13396899642	180762
3	341493	91.13620899642	180903
3	341520	91.14780899642	181044
3	341634	91.15004899642	181185
3	341673	91.16164899642	181326
3	341705	91.173075000754	181467
3	341758	91.18932899642	181608
3	341972	91.233626728067	181749
3	342316	91.33342031478	181890
3	342549	91.383626728067	182031
3	342576	91.39349835206	182172
3	343250	91.583626728067	182313
3	343269	91.588266728067	182454
3	343616	91.68396899642	182595
3	343639	91.69780899642	182736
3	343794	91.71164899642	182877
3	343820	91.72548899642	183018
3	343863	91.73932899642	183159
3	345312	92.133626728067	183300
3	345331	92.138266728067	183441
3	345675	92.23396899642	183582
3	345705	92.24780899642	183723
3	345716	92.248426728067	183864
3	346415	92.43342031478	184005
3	346609	92.49349835206	184146
3	348982	93.233626728067	184287
3	349431	93.383626728067	184428
3	349450	93.397466728067	184569
3	350024	93.53342031478	184710
3	350217	93.583626728067	184851
3	350244	93.59349835206	184992
3	350263	93.597466728067	185133
3	351047	93.833626728067	185274
3	352107	94.133626728067	185415
3	352134	94.14349835206	185556
3	352636	94.283626728067	185697
3	352959	94.383626728067	185838
3	352969	94.38396899642	185979
3	353133	94.41164899642	186120
3	353173	94.42548899642	186261
3	353192	94.43932899642	186402
3	353316	94.45316899642	186543
3	353382	94.498426728067	186684
3	353906	94.63342031478	186825
3	354389	94.78396899642	186966
3	354546	94.81164899642	187107
3	354628	94.82548899642	187248
3	354642	94.833626728067	187389
3	354661	94.83932899642	187530
3	354781	94.85316899642	187671
3	354812	94.86700899642	187812
3	354834	94.88084899642	187953
3	354987	94.90852899642	188094
3	355030	94.92236899642	188235
3	355864	95.18342031478	188376
3	356102	95.233626728067	188517
3	356120	95.24349835206	188658
3	356407	95.33396899642	188799
3	356421	95.34780899642	188940
3	356545	95.36164899642	189081
3	356629	95.37548899642	189222
3	356648	95.383626728067	189363
3	356804	95.40316899642	189504
3	357299	95.583626728067	189645
3	358298	95.88396899642	189786
3	358317	95.89780899642	189927
3	358476	95.91164899642	190068
3	358739	95.983626728067	190209
3	359313	96.133626728067	190350
3	359809	96.28342031478	190491
3	360004	96.33342031478	190632
3	360738	96.533626728067	190773
3	360748	96.53396899642	190914
3	360881	96.56164899642	191055
3	361455	96.733626728067	191196
3	361474	96.747466728067	191337
3	361594	96.761306728067	191478
3	362303	96.98396899642	191619
3	362317	96.99780899642	191760
3	362469	97.01164899642	191901
3	362742	97.088360723733	192042
3	362921	97.102200723733	192183
3	363451	97.283626728067	192324
3	363818	97.388040751662	192465
3	363994	97.43342031478	192606
3	364370	97.53396899642	192747
3	364384	97.54780899642	192888
3	364504	97.56164899642	193029
3	364784	97.638360723733	193170
3	364803	97.648426728067	193311
3	365007	97.683626728067	193452
3	365034	97.697466728067	193593
3	365209	97.733626728067	193734
3	365629	97.833626728067	193875
3	365643	97.847466728067	194016
3	366936	98.188360723733	194157
3	366950	98.198426728067	194298
3	367108	98.202200723733	194439
3	367204	98.234426728067	194580
3	367352	98.283626728067	194721
3	367769	98.383626728067	194862
3	367788	98.388266728067	195003
3	367807	98.397466728067	195144
3	368197	98.488040751662	195285
3	368397	98.53342031478	195426
3	370914	99.298426728067	195567
3	371149	99.333626728067	195708
3	371666	99.483626728067	195849
3	371685	99.488266728067	195990
3	372057	99.588040751662	196131
3	372233	99.63342031478	196272
3	372707	99.78396899642	196413
3	372867	99.81164899642	196554
3	372931	99.82548899642	196695
3	372950	99.83932899642	196836
3	373166	99.883626728067	196977
3	374269	100.183626728067	197118
3	374508	100.23396899642	197259
3	374527	100.24780899642	197400
3	374649	100.26164899642	197541
3	374705	100.27548899642	197682
3	374863	100.30316899642	197823
3	374906	100.31700899642	197964
3	374947	100.33396899642	198105
3	374966	100.34780899642	198246
3	389311	104.53396899642	198387
3	389348	104.54780899642	198528

