version 2
run B_08_10-0-20191011-21:26:04-5984
attr configname B_08_10
attr datetime 20191011-21:26:04
attr experiment B_08_10
attr inifile SimV3.ini
attr iterationvars ""
attr iterationvarsf ""
attr measurement ""
attr network NetworkTormV2
attr processid 5984
attr repetition 0
attr replication #0
attr resultdir results
attr runnumber 0
attr seedset 0
param **.mobility.traceFile "\"pathsGW/B.movements\""
param **.numNodes 11
param **.application.dataGenerationInterval 1s
param **.application.dataSizeInBytes 10
param **.application.ttl 999999s
param **application.nodesThatGen false
param **application.nodesGenMsg "\"\""
param **application.startMultipleMsg false
param **application.numMultipleMsg 100
param **application.hopsListSize 50
param **.application.endGeneratingMsg 99s
param **.routingLayer "\"RoutingLqeGw\""
param **.routing.maximumCacheSize 5000byte
param **.routing.maximumHopCount 25
param **.routing.useTTL false
param **.routing.waitBFsend 0.5
param **.routing.max_age 999999s
param **.routing.gateway_list "\"\""
param **.routing.actual_gateway "\"\""
param **.routing.gwCheckPeriod 5s
param **.wirelessIfc.wirelessRange 40m
param **.numNodes 2
param **.application.usedRNG 1
param **.application.dataGenerationInterval 1s
param **.application.dataSizeInBytes 10
param **.application.ttl 999999s
param **application.destinationAddr "\"Wf:00:00:00:00:02\""
param **application.destinationBTAddr "\"Bt:00:00:00:00:02\""
param **application.nodesThatGen true
param **application.nodesGenMsg "\"0\""
param **application.startMultipleMsg true
param **application.numMultipleMsg 100
param **application.hopsListSize 50
param **.application.endGeneratingMsg 999999s
param **.routingLayer "\"RoutingLqeGw\""
param **.routing.maximumCacheSize 5000byte
param **.routing.maximumHopCount 25
param **.routing.useTTL false
param **.routing.waitBFsend 0.5
param **.routing.max_age 999999s
param **.routing.gateway_list "\"\""
param **.routing.actual_gateway "\"\""
param **.routing.gwCheckPeriod 5s
param **.neighboring.antiEntropyInterval 500ms
param **.neighboring.maximumRandomBackoffDuration 1s
param **.neighboring.delayPerDataMsg 0.1
param **neighboring.usedRNG 2
param **.neighboring.GWAddr "\"Wf:00:00:00:00:02\""
param **.neighboring.sendWifiFirst true
param **.neighboring.maxLengthGraph 20
param **.neighboring.max_age 999999s
param **.neighboring.max_absent_time 1s
param **.wirelessIfc.wirelessRange 40m
param **.wirelessIfc.neighbourScanInterval 50ms
param **.wirelessIfc.bandwidthBitRate 100000bps
param **.wirelessIfc.wirelessHeaderSize 32byte
param **.wirelessIfc.minSSI -90
param **.wirelessIfc.limitQueueTime 400ms
param **.wirelessIfc.my_limit_rate 0bps
param **.bluetoothIfc.wirelessRange 40m
param **.bluetoothIfc.neighbourScanInterval 100ms
param **.bluetoothIfc.bandwidthBitRate 100000bps
param **.bluetoothIfc.wirelessHeaderSize 16byte
param **.bluetoothIfc.minSSI -90
param **.mobilityType "\"BonnMotionMobility\""
param **.mobility.traceFile "\"paths/Moves2.movements\""
param **.mobility.is3D false
param **.mobility.nodeId -1

vector 0 NetworkTormV2 neighbourhoodSize:vector ETV
attr source neighbourhoodSize
vector 1 NetworkTormV2 deliveryRatio:vector ETV
attr source sum(totalDataBytesReceived)/sum(totalDataBytesReceivableByAllNodes)
vector 2 NetworkTormV2 dataBytesReceivedSum:vector ETV
attr source sum(dataBytesReceived)
vector 3 NetworkTormV2 totalBytesReceivedSum:vector ETV
attr source sum(totalBytesReceived)
0	34	0.05	3
0	35	0.05	5
0	36	0.05	3
0	37	0.05	5
0	38	0.05	8
0	39	0.05	5
0	40	0.05	3
0	41	0.05	5
0	42	0.05	3
0	43	0.05	1
0	44	0.05	1
0	134	0.1	3
0	136	0.1	5
0	138	0.1	3
0	140	0.1	5
0	142	0.1	8
0	144	0.1	5
0	146	0.1	3
0	148	0.1	5
0	150	0.1	3
0	152	0.1	1
0	154	0.1	1
0	157	0.1	3
0	158	0.1	5
0	159	0.1	3
0	160	0.1	5
0	161	0.1	8
0	162	0.1	5
0	163	0.1	3
0	164	0.1	5
0	165	0.1	3
0	166	0.1	1
0	167	0.1	1
0	289	0.15	3
0	290	0.15	5
0	291	0.15	3
0	292	0.15	5
0	293	0.15	8
0	294	0.15	5
0	295	0.15	3
0	296	0.15	5
0	297	0.15	3
0	298	0.15	1
0	299	0.15	1
0	388	0.2	3
0	389	0.2	5
0	390	0.2	3
0	391	0.2	5
0	392	0.2	8
0	393	0.2	5
0	394	0.2	3
0	395	0.2	5
0	396	0.2	3
0	397	0.2	1
0	398	0.2	1
0	401	0.2	3
0	402	0.2	5
0	403	0.2	3
0	404	0.2	5
0	405	0.2	8
0	406	0.2	5
0	407	0.2	3
0	408	0.2	5
0	409	0.2	3
0	410	0.2	1
0	411	0.2	1
0	522	0.25	3
0	523	0.25	5
0	524	0.25	3
0	525	0.25	5
0	526	0.25	8
0	527	0.25	5
0	528	0.25	3
0	529	0.25	5
0	530	0.25	3
0	531	0.25	1
0	532	0.25	1
0	621	0.3	3
0	622	0.3	5
0	623	0.3	3
0	624	0.3	5
0	625	0.3	8
0	626	0.3	5
0	627	0.3	3
0	628	0.3	5
0	629	0.3	3
0	630	0.3	1
0	631	0.3	1
0	634	0.3	3
0	635	0.3	5
0	636	0.3	3
0	637	0.3	5
0	638	0.3	8
0	639	0.3	5
0	640	0.3	3
0	641	0.3	5
0	642	0.3	3
0	643	0.3	1
0	644	0.3	1
0	755	0.35	3
0	756	0.35	5
0	757	0.35	3
0	758	0.35	5
0	759	0.35	8
0	760	0.35	5
0	761	0.35	3
0	762	0.35	5
0	763	0.35	3
0	764	0.35	1
0	765	0.35	1
0	854	0.4	3
0	855	0.4	5
0	856	0.4	3
0	857	0.4	5
0	858	0.4	8
0	859	0.4	5
0	860	0.4	3
0	861	0.4	5
0	862	0.4	3
0	863	0.4	1
0	864	0.4	1
0	867	0.4	3
0	868	0.4	5
0	869	0.4	3
0	870	0.4	5
0	871	0.4	8
0	872	0.4	5
0	873	0.4	3
0	874	0.4	5
0	875	0.4	3
0	876	0.4	1
0	877	0.4	1
0	988	0.45	3
0	989	0.45	5
0	990	0.45	3
0	991	0.45	5
0	992	0.45	8
0	993	0.45	5
0	994	0.45	3
0	995	0.45	5
0	996	0.45	3
0	997	0.45	1
0	998	0.45	1
0	1087	0.5	3
0	1088	0.5	5
0	1089	0.5	3
0	1090	0.5	5
0	1091	0.5	8
0	1092	0.5	5
0	1093	0.5	3
0	1094	0.5	5
0	1095	0.5	3
0	1096	0.5	1
0	1097	0.5	1
0	1100	0.5	3
0	1101	0.5	5
0	1102	0.5	3
0	1103	0.5	5
0	1104	0.5	8
0	1105	0.5	5
0	1106	0.5	3
0	1107	0.5	5
0	1108	0.5	3
0	1109	0.5	1
0	1110	0.5	1
0	1221	0.55	3
0	1222	0.55	5
0	1223	0.55	3
0	1224	0.55	5
0	1225	0.55	8
0	1226	0.55	5
0	1227	0.55	3
0	1228	0.55	5
0	1229	0.55	3
0	1230	0.55	1
0	1231	0.55	1
0	1320	0.6	3
0	1321	0.6	5
0	1322	0.6	3
0	1323	0.6	5
0	1324	0.6	8
0	1325	0.6	5
0	1326	0.6	3
0	1327	0.6	5
0	1328	0.6	3
0	1329	0.6	1
0	1330	0.6	1
0	1333	0.6	3
0	1334	0.6	5
0	1335	0.6	3
0	1336	0.6	5
0	1337	0.6	8
0	1338	0.6	5
0	1339	0.6	3
0	1340	0.6	5
0	1341	0.6	3
0	1342	0.6	1
0	1343	0.6	1
0	1454	0.65	3
0	1455	0.65	5
0	1456	0.65	3
0	1457	0.65	5
0	1458	0.65	8
0	1459	0.65	5
0	1460	0.65	3
0	1461	0.65	5
0	1462	0.65	3
0	1463	0.65	1
0	1464	0.65	1
0	1553	0.7	3
0	1554	0.7	5
0	1555	0.7	3
0	1556	0.7	5
0	1557	0.7	8
0	1558	0.7	5
0	1559	0.7	3
0	1560	0.7	5
0	1561	0.7	3
0	1562	0.7	1
0	1563	0.7	1
0	1566	0.7	3
0	1567	0.7	5
0	1568	0.7	3
0	1569	0.7	5
0	1570	0.7	8
0	1571	0.7	5
0	1572	0.7	3
0	1573	0.7	5
0	1574	0.7	3
0	1575	0.7	1
0	1576	0.7	1
0	1687	0.75	3
0	1688	0.75	5
0	1689	0.75	3
0	1690	0.75	5
0	1691	0.75	8
0	1692	0.75	5
0	1693	0.75	3
0	1694	0.75	5
0	1695	0.75	3
0	1696	0.75	1
0	1697	0.75	1
0	1786	0.8	3
0	1787	0.8	5
0	1788	0.8	3
0	1789	0.8	5
0	1790	0.8	8
0	1791	0.8	5
0	1792	0.8	3
0	1793	0.8	5
0	1794	0.8	3
0	1795	0.8	1
0	1796	0.8	1
0	1799	0.8	3
0	1800	0.8	5
0	1801	0.8	3
0	1802	0.8	5
0	1803	0.8	8
0	1804	0.8	5
0	1805	0.8	3
0	1806	0.8	5
0	1807	0.8	3
0	1808	0.8	1
0	1809	0.8	1
0	1920	0.85	3
0	1921	0.85	5
0	1922	0.85	3
0	1923	0.85	5
0	1924	0.85	8
0	1925	0.85	5
0	1926	0.85	3
0	1927	0.85	5
0	1928	0.85	3
0	1929	0.85	1
0	1930	0.85	1
0	2019	0.9	3
0	2020	0.9	5
0	2021	0.9	3
0	2022	0.9	5
0	2023	0.9	8
0	2024	0.9	5
0	2025	0.9	3
0	2026	0.9	5
0	2027	0.9	3
0	2028	0.9	1
0	2029	0.9	1
0	2032	0.9	3
0	2033	0.9	5
0	2034	0.9	3
0	2035	0.9	5
0	2036	0.9	8
0	2037	0.9	5
0	2038	0.9	3
0	2039	0.9	5
0	2040	0.9	3
0	2041	0.9	1
0	2042	0.9	1
0	2153	0.95	3
0	2154	0.95	5
0	2155	0.95	3
0	2156	0.95	5
0	2157	0.95	8
0	2158	0.95	5
0	2159	0.95	3
0	2160	0.95	5
0	2161	0.95	3
0	2162	0.95	1
0	2163	0.95	1
0	2252	1	3
0	2253	1	5
0	2254	1	3
0	2255	1	5
0	2256	1	8
0	2257	1	5
0	2258	1	3
0	2259	1	5
0	2260	1	3
0	2261	1	1
0	2262	1	1
0	2265	1	3
0	2266	1	5
0	2267	1	3
0	2268	1	5
0	2269	1	8
0	2270	1	5
0	2271	1	3
0	2272	1	5
0	2273	1	3
0	2274	1	1
0	2275	1	1
0	2386	1.05	3
0	2387	1.05	5
0	2388	1.05	3
0	2389	1.05	5
0	2390	1.05	8
0	2391	1.05	5
0	2392	1.05	3
0	2393	1.05	5
0	2394	1.05	3
0	2395	1.05	1
0	2396	1.05	1
0	2496	1.1	3
0	2497	1.1	5
0	2498	1.1	3
0	2499	1.1	5
0	2500	1.1	8
0	2501	1.1	5
0	2502	1.1	3
0	2503	1.1	5
0	2504	1.1	3
0	2505	1.1	1
0	2506	1.1	1
0	2509	1.1	3
0	2510	1.1	5
0	2511	1.1	3
0	2512	1.1	5
0	2513	1.1	8
0	2514	1.1	5
0	2515	1.1	3
0	2516	1.1	5
0	2517	1.1	3
0	2518	1.1	1
0	2519	1.1	1
0	3091	1.15	3
0	3092	1.15	5
0	3093	1.15	3
0	3094	1.15	5
0	3095	1.15	8
0	3096	1.15	5
0	3097	1.15	3
0	3098	1.15	5
0	3099	1.15	3
0	3100	1.15	1
0	3101	1.15	1
0	3508	1.2	3
0	3509	1.2	5
0	3510	1.2	3
0	3511	1.2	5
0	3512	1.2	8
0	3513	1.2	5
0	3514	1.2	3
0	3515	1.2	5
0	3516	1.2	3
0	3517	1.2	1
0	3518	1.2	1
0	3521	1.2	3
0	3522	1.2	5
0	3523	1.2	3
0	3524	1.2	5
0	3525	1.2	8
0	3526	1.2	5
0	3527	1.2	3
0	3528	1.2	5
0	3529	1.2	3
0	3530	1.2	1
0	3531	1.2	1
0	3726	1.25	3
0	3727	1.25	5
0	3728	1.25	3
0	3729	1.25	5
0	3730	1.25	8
0	3731	1.25	5
0	3732	1.25	3
0	3733	1.25	5
0	3734	1.25	3
0	3735	1.25	1
0	3736	1.25	1
0	3843	1.3	3
0	3844	1.3	5
0	3845	1.3	3
0	3846	1.3	5
0	3847	1.3	8
0	3848	1.3	5
0	3849	1.3	3
0	3850	1.3	5
0	3851	1.3	3
0	3852	1.3	1
0	3853	1.3	1
0	3856	1.3	3
0	3857	1.3	5
0	3858	1.3	3
0	3859	1.3	5
0	3860	1.3	8
0	3861	1.3	5
0	3862	1.3	3
0	3863	1.3	5
0	3864	1.3	3
0	3865	1.3	1
0	3866	1.3	1
0	3977	1.35	3
0	3978	1.35	5
0	3979	1.35	3
0	3980	1.35	5
0	3981	1.35	8
0	3982	1.35	5
0	3983	1.35	3
0	3984	1.35	5
0	3985	1.35	3
0	3986	1.35	1
0	3987	1.35	1
0	4076	1.4	3
0	4077	1.4	5
0	4078	1.4	3
0	4079	1.4	5
0	4080	1.4	8
0	4081	1.4	5
0	4082	1.4	3
0	4083	1.4	5
0	4084	1.4	3
0	4085	1.4	1
0	4086	1.4	1
0	4089	1.4	3
0	4090	1.4	5
0	4091	1.4	3
0	4092	1.4	5
0	4093	1.4	8
0	4094	1.4	5
0	4095	1.4	3
0	4096	1.4	5
0	4097	1.4	3
0	4098	1.4	1
0	4099	1.4	1
0	4210	1.45	3
0	4211	1.45	5
0	4212	1.45	3
0	4213	1.45	5
0	4214	1.45	8
0	4215	1.45	5
0	4216	1.45	3
0	4217	1.45	5
0	4218	1.45	3
0	4219	1.45	1
0	4220	1.45	1
0	4309	1.5	3
0	4310	1.5	5
0	4311	1.5	3
0	4312	1.5	5
0	4313	1.5	8
0	4314	1.5	5
0	4315	1.5	3
0	4316	1.5	5
0	4317	1.5	3
0	4318	1.5	1
0	4319	1.5	1
0	4322	1.5	3
0	4323	1.5	5
0	4324	1.5	3
0	4325	1.5	5
0	4326	1.5	8
0	4327	1.5	5
0	4328	1.5	3
0	4329	1.5	5
0	4330	1.5	3
0	4331	1.5	1
0	4332	1.5	1
0	4443	1.55	3
0	4444	1.55	5
0	4445	1.55	3
0	4446	1.55	5
0	4447	1.55	8
0	4448	1.55	5
0	4449	1.55	3
0	4450	1.55	5
0	4451	1.55	3
0	4452	1.55	1
0	4453	1.55	1
0	4542	1.6	3
0	4543	1.6	5
0	4544	1.6	3
0	4545	1.6	5
0	4546	1.6	8
0	4547	1.6	5
0	4548	1.6	3
0	4549	1.6	5
0	4550	1.6	3
0	4551	1.6	1
0	4552	1.6	1
0	4555	1.6	3
0	4556	1.6	5
0	4557	1.6	3
0	4558	1.6	5
0	4559	1.6	8
0	4560	1.6	5
0	4561	1.6	3
0	4562	1.6	5
0	4563	1.6	3
0	4564	1.6	1
0	4565	1.6	1
0	4676	1.65	3
0	4677	1.65	5
0	4678	1.65	3
0	4679	1.65	5
0	4680	1.65	8
0	4681	1.65	5
0	4682	1.65	3
0	4683	1.65	5
0	4684	1.65	3
0	4685	1.65	1
0	4686	1.65	1
0	5157	1.7	3
0	5158	1.7	5
0	5159	1.7	3
0	5160	1.7	5
0	5161	1.7	8
0	5162	1.7	5
0	5163	1.7	3
0	5164	1.7	5
0	5165	1.7	3
0	5166	1.7	1
0	5167	1.7	1
0	5170	1.7	3
0	5171	1.7	5
0	5172	1.7	3
0	5173	1.7	5
0	5174	1.7	8
0	5175	1.7	5
0	5176	1.7	3
0	5177	1.7	5
0	5178	1.7	3
0	5179	1.7	1
0	5180	1.7	1
0	5543	1.75	3
0	5544	1.75	5
0	5545	1.75	3
0	5546	1.75	5
0	5547	1.75	8
0	5548	1.75	5
0	5549	1.75	3
0	5550	1.75	5
0	5551	1.75	3
0	5552	1.75	1
0	5553	1.75	1
0	5738	1.8	3
0	5739	1.8	5
0	5740	1.8	3
0	5741	1.8	5
0	5742	1.8	8
0	5743	1.8	5
0	5744	1.8	3
0	5745	1.8	5
0	5746	1.8	3
0	5747	1.8	1
0	5748	1.8	1
0	5751	1.8	3
0	5752	1.8	5
0	5753	1.8	3
0	5754	1.8	5
0	5755	1.8	8
0	5756	1.8	5
0	5757	1.8	3
0	5758	1.8	5
0	5759	1.8	3
0	5760	1.8	1
0	5761	1.8	1
0	5872	1.85	3
0	5873	1.85	5
0	5874	1.85	3
0	5875	1.85	5
0	5876	1.85	8
0	5877	1.85	5
0	5878	1.85	3
0	5879	1.85	5
0	5880	1.85	3
0	5881	1.85	1
0	5882	1.85	1
0	5994	1.9	3
0	5995	1.9	5
0	5996	1.9	3
0	5997	1.9	5
0	5998	1.9	8
0	5999	1.9	5
0	6000	1.9	3
0	6001	1.9	5
0	6002	1.9	3
0	6003	1.9	1
0	6004	1.9	1
0	6007	1.9	3
0	6008	1.9	5
0	6009	1.9	3
0	6010	1.9	5
0	6011	1.9	8
0	6012	1.9	5
0	6013	1.9	3
0	6014	1.9	5
0	6015	1.9	3
0	6016	1.9	1
0	6017	1.9	1
0	6128	1.95	3
0	6129	1.95	5
0	6130	1.95	3
0	6131	1.95	5
0	6132	1.95	8
0	6133	1.95	5
0	6134	1.95	3
0	6135	1.95	5
0	6136	1.95	3
0	6137	1.95	1
0	6138	1.95	1
0	6227	2	3
0	6228	2	5
0	6229	2	3
0	6230	2	5
0	6231	2	8
0	6232	2	5
0	6233	2	3
0	6234	2	5
0	6235	2	3
0	6236	2	1
0	6237	2	1
0	6240	2	3
0	6241	2	5
0	6242	2	3
0	6243	2	5
0	6244	2	8
0	6245	2	5
0	6246	2	3
0	6247	2	5
0	6248	2	3
0	6249	2	1
0	6250	2	1
0	6361	2.05	3
0	6362	2.05	5
0	6363	2.05	3
0	6364	2.05	5
0	6365	2.05	8
0	6366	2.05	5
0	6367	2.05	3
0	6368	2.05	5
0	6369	2.05	3
0	6370	2.05	1
0	6371	2.05	1
0	6471	2.1	3
0	6472	2.1	5
0	6473	2.1	3
0	6474	2.1	5
0	6475	2.1	8
0	6476	2.1	5
0	6477	2.1	3
0	6478	2.1	5
0	6479	2.1	3
0	6480	2.1	1
0	6481	2.1	1
0	6484	2.1	3
0	6485	2.1	5
0	6486	2.1	3
0	6487	2.1	5
0	6488	2.1	8
0	6489	2.1	5
0	6490	2.1	3
0	6491	2.1	5
0	6492	2.1	3
0	6493	2.1	1
0	6494	2.1	1
0	6616	2.15	3
0	6617	2.15	5
0	6618	2.15	3
0	6619	2.15	5
0	6620	2.15	8
0	6621	2.15	5
0	6622	2.15	3
0	6623	2.15	5
0	6624	2.15	3
0	6625	2.15	1
0	6626	2.15	1
0	6715	2.2	3
0	6716	2.2	5
0	6717	2.2	3
0	6718	2.2	5
0	6719	2.2	8
0	6720	2.2	5
0	6721	2.2	3
0	6722	2.2	5
0	6723	2.2	3
0	6724	2.2	1
0	6725	2.2	1
0	6728	2.2	3
0	6729	2.2	5
0	6730	2.2	3
0	6731	2.2	5
0	6732	2.2	8
0	6733	2.2	5
0	6734	2.2	3
0	6735	2.2	5
0	6736	2.2	3
0	6737	2.2	1
0	6738	2.2	1
0	7256	2.25	3
0	7257	2.25	5
0	7258	2.25	3
0	7259	2.25	5
0	7260	2.25	8
0	7261	2.25	5
0	7262	2.25	3
0	7263	2.25	5
0	7264	2.25	3
0	7265	2.25	1
0	7266	2.25	1
0	7565	2.3	3
0	7566	2.3	5
0	7567	2.3	3
0	7568	2.3	5
0	7569	2.3	8
0	7570	2.3	5
0	7571	2.3	3
0	7572	2.3	5
0	7573	2.3	3
0	7574	2.3	1
0	7575	2.3	1
0	7578	2.3	3
0	7579	2.3	5
0	7580	2.3	3
0	7581	2.3	5
0	7582	2.3	8
0	7583	2.3	5
0	7584	2.3	3
0	7585	2.3	5
0	7586	2.3	3
0	7587	2.3	1
0	7588	2.3	1
0	7735	2.35	3
0	7736	2.35	5
0	7737	2.35	3
0	7738	2.35	5
0	7739	2.35	8
0	7740	2.35	5
0	7741	2.35	3
0	7742	2.35	5
0	7743	2.35	3
0	7744	2.35	1
0	7745	2.35	1
0	7925	2.4	3
0	7926	2.4	5
0	7927	2.4	3
0	7928	2.4	5
0	7929	2.4	8
0	7930	2.4	5
0	7931	2.4	3
0	7932	2.4	5
0	7933	2.4	3
0	7934	2.4	1
0	7935	2.4	1
0	7938	2.4	3
0	7939	2.4	5
0	7940	2.4	3
0	7941	2.4	5
0	7942	2.4	8
0	7943	2.4	5
0	7944	2.4	3
0	7945	2.4	5
0	7946	2.4	3
0	7947	2.4	1
0	7948	2.4	1
0	8082	2.45	3
0	8083	2.45	5
0	8084	2.45	3
0	8085	2.45	5
0	8086	2.45	8
0	8087	2.45	5
0	8088	2.45	3
0	8089	2.45	5
0	8090	2.45	3
0	8091	2.45	1
0	8092	2.45	1
0	8181	2.5	3
0	8182	2.5	5
0	8183	2.5	3
0	8184	2.5	5
0	8185	2.5	8
0	8186	2.5	5
0	8187	2.5	3
0	8188	2.5	5
0	8189	2.5	3
0	8190	2.5	1
0	8191	2.5	1
0	8194	2.5	3
0	8195	2.5	5
0	8196	2.5	3
0	8197	2.5	5
0	8198	2.5	8
0	8199	2.5	5
0	8200	2.5	3
0	8201	2.5	5
0	8202	2.5	3
0	8203	2.5	1
0	8204	2.5	1
0	8315	2.55	3
0	8316	2.55	5
0	8317	2.55	3
0	8318	2.55	5
0	8319	2.55	8
0	8320	2.55	5
0	8321	2.55	3
0	8322	2.55	5
0	8323	2.55	3
0	8324	2.55	1
0	8325	2.55	1
0	8414	2.6	3
0	8415	2.6	5
0	8416	2.6	3
0	8417	2.6	5
0	8418	2.6	8
0	8419	2.6	5
0	8420	2.6	3
0	8421	2.6	5
0	8422	2.6	3
0	8423	2.6	1
0	8424	2.6	1
0	8427	2.6	3
0	8428	2.6	5
0	8429	2.6	3
0	8430	2.6	5
0	8431	2.6	8
0	8432	2.6	5
0	8433	2.6	3
0	8434	2.6	5
0	8435	2.6	3
0	8436	2.6	1
0	8437	2.6	1
0	8548	2.65	3
0	8549	2.65	5
0	8550	2.65	3
0	8551	2.65	5
0	8552	2.65	8
0	8553	2.65	5
0	8554	2.65	3
0	8555	2.65	5
0	8556	2.65	3
0	8557	2.65	1
0	8558	2.65	1
0	8647	2.7	3
0	8648	2.7	5
0	8649	2.7	3
0	8650	2.7	5
0	8651	2.7	8
0	8652	2.7	5
0	8653	2.7	3
0	8654	2.7	5
0	8655	2.7	3
0	8656	2.7	1
0	8657	2.7	1
0	8660	2.7	3
0	8661	2.7	5
0	8662	2.7	3
0	8663	2.7	5
0	8664	2.7	8
0	8665	2.7	5
0	8666	2.7	3
0	8667	2.7	5
0	8668	2.7	3
0	8669	2.7	1
0	8670	2.7	1
0	8826	2.75	3
0	8827	2.75	5
0	8828	2.75	3
0	8829	2.75	5
0	8830	2.75	8
0	8831	2.75	5
0	8832	2.75	3
0	8833	2.75	5
0	8834	2.75	3
0	8835	2.75	1
0	8836	2.75	1
0	9318	2.8	3
0	9319	2.8	5
0	9320	2.8	3
0	9321	2.8	5
0	9322	2.8	8
0	9323	2.8	5
0	9324	2.8	3
0	9325	2.8	5
0	9326	2.8	3
0	9327	2.8	1
0	9328	2.8	1
0	9331	2.8	3
0	9332	2.8	5
0	9333	2.8	3
0	9334	2.8	5
0	9335	2.8	8
0	9336	2.8	5
0	9337	2.8	3
0	9338	2.8	5
0	9339	2.8	3
0	9340	2.8	1
0	9341	2.8	1
0	9614	2.85	3
0	9615	2.85	5
0	9616	2.85	3
0	9617	2.85	5
0	9618	2.85	8
0	9619	2.85	5
0	9620	2.85	3
0	9621	2.85	5
0	9622	2.85	3
0	9623	2.85	1
0	9624	2.85	1
0	9713	2.9	3
0	9714	2.9	5
0	9715	2.9	3
0	9716	2.9	5
0	9717	2.9	8
0	9718	2.9	5
0	9719	2.9	3
0	9720	2.9	5
0	9721	2.9	3
0	9722	2.9	1
0	9723	2.9	1
0	9726	2.9	3
0	9727	2.9	5
0	9728	2.9	3
0	9729	2.9	5
0	9730	2.9	8
0	9731	2.9	5
0	9732	2.9	3
0	9733	2.9	5
0	9734	2.9	3
0	9735	2.9	1
0	9736	2.9	1
0	9939	2.95	3
0	9940	2.95	5
0	9941	2.95	3
0	9942	2.95	5
0	9943	2.95	8
0	9944	2.95	5
0	9945	2.95	3
0	9946	2.95	5
0	9947	2.95	3
0	9948	2.95	1
0	9949	2.95	1
0	10060	3	3
0	10061	3	5
0	10062	3	3
0	10063	3	5
0	10064	3	8
0	10065	3	5
0	10066	3	3
0	10067	3	5
0	10068	3	3
0	10069	3	1
0	10070	3	1
0	10073	3	3
0	10074	3	5
0	10075	3	3
0	10076	3	5
0	10077	3	8
0	10078	3	5
0	10079	3	3
0	10080	3	5
0	10081	3	3
0	10082	3	1
0	10083	3	1
0	10194	3.05	3
0	10195	3.05	5
0	10196	3.05	3
0	10197	3.05	5
0	10198	3.05	8
0	10199	3.05	5
0	10200	3.05	3
0	10201	3.05	5
0	10202	3.05	3
0	10203	3.05	1
0	10204	3.05	1
0	10304	3.1	3
0	10305	3.1	5
0	10306	3.1	3
0	10307	3.1	5
0	10308	3.1	8
0	10309	3.1	5
0	10310	3.1	3
0	10311	3.1	5
0	10312	3.1	3
0	10313	3.1	1
0	10314	3.1	1
0	10317	3.1	3
0	10318	3.1	5
0	10319	3.1	3
0	10320	3.1	5
0	10321	3.1	8
0	10322	3.1	5
0	10323	3.1	3
0	10324	3.1	5
0	10325	3.1	3
0	10326	3.1	1
0	10327	3.1	1
0	10449	3.15	3
0	10450	3.15	5
0	10451	3.15	3
0	10452	3.15	5
0	10453	3.15	8
0	10454	3.15	5
0	10455	3.15	3
0	10456	3.15	5
0	10457	3.15	3
0	10458	3.15	1
0	10459	3.15	1
0	10548	3.2	3
0	10549	3.2	5
0	10550	3.2	3
0	10551	3.2	5
0	10552	3.2	8
0	10553	3.2	5
0	10554	3.2	3
0	10555	3.2	5
0	10556	3.2	3
0	10557	3.2	1
0	10558	3.2	1
0	10561	3.2	3
0	10562	3.2	5
0	10563	3.2	3
0	10564	3.2	5
0	10565	3.2	8
0	10566	3.2	5
0	10567	3.2	3
0	10568	3.2	5
0	10569	3.2	3
0	10570	3.2	1
0	10571	3.2	1
0	10682	3.25	3
0	10683	3.25	5
0	10684	3.25	3
0	10685	3.25	5
0	10686	3.25	8
0	10687	3.25	5
0	10688	3.25	3
0	10689	3.25	5
0	10690	3.25	3
0	10691	3.25	1
0	10692	3.25	1
0	10837	3.3	3
0	10838	3.3	5
0	10839	3.3	3
0	10840	3.3	5
0	10841	3.3	8
0	10842	3.3	5
0	10843	3.3	3
0	10844	3.3	5
0	10845	3.3	3
0	10846	3.3	1
0	10847	3.3	1
0	10850	3.3	3
0	10851	3.3	5
0	10852	3.3	3
0	10853	3.3	5
0	10854	3.3	8
0	10855	3.3	5
0	10856	3.3	3
0	10857	3.3	5
0	10858	3.3	3
0	10859	3.3	1
0	10860	3.3	1
0	11365	3.35	3
0	11366	3.35	5
0	11367	3.35	3
0	11368	3.35	5
0	11369	3.35	8
0	11370	3.35	5
0	11371	3.35	3
0	11372	3.35	5
0	11373	3.35	3
0	11374	3.35	1
0	11375	3.35	1
0	11557	3.4	3
0	11558	3.4	5
0	11559	3.4	3
0	11560	3.4	5
0	11561	3.4	8
0	11562	3.4	5
0	11563	3.4	3
0	11564	3.4	5
0	11565	3.4	3
0	11566	3.4	1
0	11567	3.4	1
0	11570	3.4	3
0	11571	3.4	5
0	11572	3.4	3
0	11573	3.4	5
0	11574	3.4	8
0	11575	3.4	5
0	11576	3.4	3
0	11577	3.4	5
0	11578	3.4	3
0	11579	3.4	1
0	11580	3.4	1
0	11696	3.45	3
0	11697	3.45	5
0	11698	3.45	3
0	11699	3.45	5
0	11700	3.45	8
0	11701	3.45	5
0	11702	3.45	3
0	11703	3.45	5
0	11704	3.45	3
0	11705	3.45	1
0	11706	3.45	1
0	11881	3.5	3
0	11882	3.5	5
0	11883	3.5	3
0	11884	3.5	5
0	11885	3.5	8
0	11886	3.5	5
0	11887	3.5	3
0	11888	3.5	5
0	11889	3.5	3
0	11890	3.5	1
0	11891	3.5	1
0	11894	3.5	3
0	11895	3.5	5
0	11896	3.5	3
0	11897	3.5	5
0	11898	3.5	8
0	11899	3.5	5
0	11900	3.5	3
0	11901	3.5	5
0	11902	3.5	3
0	11903	3.5	1
0	11904	3.5	1
0	12020	3.55	3
0	12021	3.55	5
0	12022	3.55	3
0	12023	3.55	5
0	12024	3.55	8
0	12025	3.55	5
0	12026	3.55	3
0	12027	3.55	5
0	12028	3.55	3
0	12029	3.55	1
0	12030	3.55	1
0	12119	3.6	3
0	12120	3.6	5
0	12121	3.6	3
0	12122	3.6	5
0	12123	3.6	8
0	12124	3.6	5
0	12125	3.6	3
0	12126	3.6	5
0	12127	3.6	3
0	12128	3.6	1
0	12129	3.6	1
0	12132	3.6	3
0	12133	3.6	5
0	12134	3.6	3
0	12135	3.6	5
0	12136	3.6	8
0	12137	3.6	5
0	12138	3.6	3
0	12139	3.6	5
0	12140	3.6	3
0	12141	3.6	1
0	12142	3.6	1
0	12253	3.65	3
0	12254	3.65	5
0	12255	3.65	3
0	12256	3.65	5
0	12257	3.65	8
0	12258	3.65	5
0	12259	3.65	3
0	12260	3.65	5
0	12261	3.65	3
0	12262	3.65	1
0	12263	3.65	1
0	12352	3.7	3
0	12353	3.7	5
0	12354	3.7	3
0	12355	3.7	5
0	12356	3.7	8
0	12357	3.7	5
0	12358	3.7	3
0	12359	3.7	5
0	12360	3.7	3
0	12361	3.7	1
0	12362	3.7	1
0	12365	3.7	3
0	12366	3.7	5
0	12367	3.7	3
0	12368	3.7	5
0	12369	3.7	8
0	12370	3.7	5
0	12371	3.7	3
0	12372	3.7	5
0	12373	3.7	3
0	12374	3.7	1
0	12375	3.7	1
0	12486	3.75	3
0	12487	3.75	5
0	12488	3.75	3
0	12489	3.75	5
0	12490	3.75	8
0	12491	3.75	5
0	12492	3.75	3
0	12493	3.75	5
0	12494	3.75	3
0	12495	3.75	1
0	12496	3.75	1
0	12585	3.8	3
0	12586	3.8	5
0	12587	3.8	3
0	12588	3.8	5
0	12589	3.8	8
0	12590	3.8	5
0	12591	3.8	3
0	12592	3.8	5
0	12593	3.8	3
0	12594	3.8	1
0	12595	3.8	1
0	12598	3.8	3
0	12599	3.8	5
0	12600	3.8	3
0	12601	3.8	5
0	12602	3.8	8
0	12603	3.8	5
0	12604	3.8	3
0	12605	3.8	5
0	12606	3.8	3
0	12607	3.8	1
0	12608	3.8	1
0	12770	3.85	3
0	12771	3.85	5
0	12772	3.85	3
0	12773	3.85	5
0	12774	3.85	8
0	12775	3.85	5
0	12776	3.85	3
0	12777	3.85	5
0	12778	3.85	3
0	12779	3.85	1
0	12780	3.85	1
0	13209	3.9	3
0	13210	3.9	5
0	13211	3.9	3
0	13212	3.9	5
0	13213	3.9	8
0	13214	3.9	5
0	13215	3.9	3
0	13216	3.9	5
0	13217	3.9	3
0	13218	3.9	1
0	13219	3.9	1
0	13222	3.9	3
0	13223	3.9	5
0	13224	3.9	3
0	13225	3.9	5
0	13226	3.9	8
0	13227	3.9	5
0	13228	3.9	3
0	13229	3.9	5
0	13230	3.9	3
0	13231	3.9	1
0	13232	3.9	1
0	13391	3.95	3
0	13392	3.95	5
0	13393	3.95	3
0	13394	3.95	5
0	13395	3.95	8
0	13396	3.95	5
0	13397	3.95	3
0	13398	3.95	5
0	13399	3.95	3
0	13400	3.95	1
0	13401	3.95	1
0	13576	4	3
0	13577	4	5
0	13578	4	3
0	13579	4	5
0	13580	4	8
0	13581	4	5
0	13582	4	3
0	13583	4	5
0	13584	4	3
0	13585	4	1
0	13586	4	1
0	13589	4	3
0	13590	4	5
0	13591	4	3
0	13592	4	5
0	13593	4	8
0	13594	4	5
0	13595	4	3
0	13596	4	5
0	13597	4	3
0	13598	4	1
0	13599	4	1
0	13779	4.05	3
0	13780	4.05	5
0	13781	4.05	3
0	13782	4.05	5
0	13783	4.05	8
0	13784	4.05	5
0	13785	4.05	3
0	13786	4.05	5
0	13787	4.05	3
0	13788	4.05	1
0	13789	4.05	1
0	13889	4.1	3
0	13890	4.1	5
0	13891	4.1	3
0	13892	4.1	5
0	13893	4.1	8
0	13894	4.1	5
0	13895	4.1	3
0	13896	4.1	5
0	13897	4.1	3
0	13898	4.1	1
0	13899	4.1	1
0	13902	4.1	3
0	13903	4.1	5
0	13904	4.1	3
0	13905	4.1	5
0	13906	4.1	8
0	13907	4.1	5
0	13908	4.1	3
0	13909	4.1	5
0	13910	4.1	3
0	13911	4.1	1
0	13912	4.1	1
0	14057	4.15	3
0	14058	4.15	5
0	14059	4.15	3
0	14060	4.15	5
0	14061	4.15	8
0	14062	4.15	5
0	14063	4.15	3
0	14064	4.15	5
0	14065	4.15	3
0	14066	4.15	1
0	14067	4.15	1
0	14156	4.2	3
0	14157	4.2	5
0	14158	4.2	3
0	14159	4.2	5
0	14160	4.2	8
0	14161	4.2	5
0	14162	4.2	3
0	14163	4.2	5
0	14164	4.2	3
0	14165	4.2	1
0	14166	4.2	1
0	14169	4.2	3
0	14170	4.2	5
0	14171	4.2	3
0	14172	4.2	5
0	14173	4.2	8
0	14174	4.2	5
0	14175	4.2	3
0	14176	4.2	5
0	14177	4.2	3
0	14178	4.2	1
0	14179	4.2	1
0	14290	4.25	3
0	14291	4.25	5
0	14292	4.25	3
0	14293	4.25	5
0	14294	4.25	8
0	14295	4.25	5
0	14296	4.25	3
0	14297	4.25	5
0	14298	4.25	3
0	14299	4.25	1
0	14300	4.25	1
0	14389	4.3	3
0	14390	4.3	5
0	14391	4.3	3
0	14392	4.3	5
0	14393	4.3	8
0	14394	4.3	5
0	14395	4.3	3
0	14396	4.3	5
0	14397	4.3	3
0	14398	4.3	1
0	14399	4.3	1
0	14402	4.3	3
0	14403	4.3	5
0	14404	4.3	3
0	14405	4.3	5
0	14406	4.3	8
0	14407	4.3	5
0	14408	4.3	3
0	14409	4.3	5
0	14410	4.3	3
0	14411	4.3	1
0	14412	4.3	1
0	14523	4.35	3
0	14524	4.35	5
0	14525	4.35	3
0	14526	4.35	5
0	14527	4.35	8
0	14528	4.35	5
0	14529	4.35	3
0	14530	4.35	5
0	14531	4.35	3
0	14532	4.35	1
0	14533	4.35	1
0	14719	4.4	3
0	14720	4.4	5
0	14721	4.4	3
0	14722	4.4	5
0	14723	4.4	8
0	14724	4.4	5
0	14725	4.4	3
0	14726	4.4	5
0	14727	4.4	3
0	14728	4.4	1
0	14729	4.4	1
0	14732	4.4	3
0	14733	4.4	5
0	14734	4.4	3
0	14735	4.4	5
0	14736	4.4	8
0	14737	4.4	5
0	14738	4.4	3
0	14739	4.4	5
0	14740	4.4	3
0	14741	4.4	1
0	14742	4.4	1
0	15161	4.45	3
0	15162	4.45	5
0	15163	4.45	3
0	15164	4.45	5
0	15165	4.45	8
0	15166	4.45	5
0	15167	4.45	3
0	15168	4.45	5
0	15169	4.45	3
0	15170	4.45	1
0	15171	4.45	1
0	15324	4.5	3
0	15325	4.5	5
0	15326	4.5	3
0	15327	4.5	5
0	15328	4.5	8
0	15329	4.5	5
0	15330	4.5	3
0	15331	4.5	5
0	15332	4.5	3
0	15333	4.5	1
0	15334	4.5	1
0	15337	4.5	3
0	15338	4.5	5
0	15339	4.5	3
0	15340	4.5	5
0	15341	4.5	8
0	15342	4.5	5
0	15343	4.5	3
0	15344	4.5	5
0	15345	4.5	3
0	15346	4.5	1
0	15347	4.5	1
0	15520	4.55	3
0	15521	4.55	5
0	15522	4.55	3
0	15523	4.55	5
0	15524	4.55	8
0	15525	4.55	5
0	15526	4.55	3
0	15527	4.55	5
0	15528	4.55	3
0	15529	4.55	1
0	15530	4.55	1
0	15711	4.6	3
0	15712	4.6	5
0	15713	4.6	3
0	15714	4.6	5
0	15715	4.6	8
0	15716	4.6	5
0	15717	4.6	3
0	15718	4.6	5
0	15719	4.6	3
0	15720	4.6	1
0	15721	4.6	1
0	15724	4.6	3
0	15725	4.6	5
0	15726	4.6	3
0	15727	4.6	5
0	15728	4.6	8
0	15729	4.6	5
0	15730	4.6	3
0	15731	4.6	5
0	15732	4.6	3
0	15733	4.6	1
0	15734	4.6	1
0	15868	4.65	3
0	15869	4.65	5
0	15870	4.65	3
0	15871	4.65	5
0	15872	4.65	8
0	15873	4.65	5
0	15874	4.65	3
0	15875	4.65	5
0	15876	4.65	3
0	15877	4.65	1
0	15878	4.65	1
0	15990	4.7	3
0	15991	4.7	5
0	15992	4.7	3
0	15993	4.7	5
0	15994	4.7	8
0	15995	4.7	5
0	15996	4.7	3
0	15997	4.7	5
0	15998	4.7	3
0	15999	4.7	1
0	16000	4.7	1
0	16003	4.7	3
0	16004	4.7	5
0	16005	4.7	3
0	16006	4.7	5
0	16007	4.7	8
0	16008	4.7	5
0	16009	4.7	3
0	16010	4.7	5
0	16011	4.7	3
0	16012	4.7	1
0	16013	4.7	1
0	16124	4.75	3
0	16125	4.75	5
0	16126	4.75	3
0	16127	4.75	5
0	16128	4.75	8
0	16129	4.75	5
0	16130	4.75	3
0	16131	4.75	5
0	16132	4.75	3
0	16133	4.75	1
0	16134	4.75	1
0	16223	4.8	3
0	16224	4.8	5
0	16225	4.8	3
0	16226	4.8	5
0	16227	4.8	8
0	16228	4.8	5
0	16229	4.8	3
0	16230	4.8	5
0	16231	4.8	3
0	16232	4.8	1
0	16233	4.8	1
0	16236	4.8	3
0	16237	4.8	5
0	16238	4.8	3
0	16239	4.8	5
0	16240	4.8	8
0	16241	4.8	5
0	16242	4.8	3
0	16243	4.8	5
0	16244	4.8	3
0	16245	4.8	1
0	16246	4.8	1
0	16357	4.85	3
0	16358	4.85	5
0	16359	4.85	3
0	16360	4.85	5
0	16361	4.85	8
0	16362	4.85	5
0	16363	4.85	3
0	16364	4.85	5
0	16365	4.85	3
0	16366	4.85	1
0	16367	4.85	1
0	16479	4.9	3
0	16480	4.9	5
0	16481	4.9	3
0	16482	4.9	5
0	16483	4.9	8
0	16484	4.9	5
0	16485	4.9	3
0	16486	4.9	5
0	16487	4.9	3
0	16488	4.9	1
0	16489	4.9	1
0	16492	4.9	3
0	16493	4.9	5
0	16494	4.9	3
0	16495	4.9	5
0	16496	4.9	8
0	16497	4.9	5
0	16498	4.9	3
0	16499	4.9	5
0	16500	4.9	3
0	16501	4.9	1
0	16502	4.9	1
0	16687	4.95	3
0	16688	4.95	5
0	16689	4.95	3
0	16690	4.95	5
0	16691	4.95	8
0	16692	4.95	5
0	16693	4.95	3
0	16694	4.95	5
0	16695	4.95	3
0	16696	4.95	1
0	16697	4.95	1
0	17101	5	3
0	17102	5	5
0	17103	5	3
0	17104	5	5
0	17105	5	8
0	17106	5	5
0	17107	5	3
0	17108	5	5
0	17109	5	3
0	17110	5	1
0	17111	5	1
0	17114	5	3
0	17115	5	5
0	17116	5	3
0	17117	5	5
0	17118	5	8
0	17119	5	5
0	17120	5	3
0	17121	5	5
0	17122	5	3
0	17123	5	1
0	17124	5	1
0	17292	5.05	3
0	17293	5.05	5
0	17294	5.05	3
0	17295	5.05	5
0	17296	5.05	8
0	17297	5.05	5
0	17298	5.05	3
0	17299	5.05	5
0	17300	5.05	3
0	17301	5.05	1
0	17302	5.05	1
0	17492	5.1	3
0	17493	5.1	5
0	17494	5.1	3
0	17495	5.1	5
0	17496	5.1	8
0	17497	5.1	5
0	17498	5.1	3
0	17499	5.1	5
0	17500	5.1	3
0	17501	5.1	1
0	17502	5.1	1
0	17505	5.1	3
0	17506	5.1	5
0	17507	5.1	3
0	17508	5.1	5
0	17509	5.1	8
0	17510	5.1	5
0	17511	5.1	3
0	17512	5.1	5
0	17513	5.1	3
0	17514	5.1	1
0	17515	5.1	1
0	17756	5.15	3
0	17757	5.15	5
0	17758	5.15	3
0	17759	5.15	5
0	17760	5.15	8
0	17761	5.15	5
0	17762	5.15	3
0	17763	5.15	5
0	17764	5.15	3
0	17765	5.15	1
0	17766	5.15	1
0	17908	5.2	3
0	17909	5.2	5
0	17910	5.2	3
0	17911	5.2	5
0	17912	5.2	8
0	17913	5.2	5
0	17914	5.2	3
0	17915	5.2	5
0	17916	5.2	3
0	17917	5.2	1
0	17918	5.2	1
0	17921	5.2	3
0	17922	5.2	5
0	17923	5.2	3
0	17924	5.2	5
0	17925	5.2	8
0	17926	5.2	5
0	17927	5.2	3
0	17928	5.2	5
0	17929	5.2	3
0	17930	5.2	1
0	17931	5.2	1
0	18065	5.25	3
0	18066	5.25	5
0	18067	5.25	3
0	18068	5.25	5
0	18069	5.25	8
0	18070	5.25	5
0	18071	5.25	3
0	18072	5.25	5
0	18073	5.25	3
0	18074	5.25	1
0	18075	5.25	1
0	18164	5.3	3
0	18165	5.3	5
0	18166	5.3	3
0	18167	5.3	5
0	18168	5.3	8
0	18169	5.3	5
0	18170	5.3	3
0	18171	5.3	5
0	18172	5.3	3
0	18173	5.3	1
0	18174	5.3	1
0	18177	5.3	3
0	18178	5.3	5
0	18179	5.3	3
0	18180	5.3	5
0	18181	5.3	8
0	18182	5.3	5
0	18183	5.3	3
0	18184	5.3	5
0	18185	5.3	3
0	18186	5.3	1
0	18187	5.3	1
0	18298	5.35	3
0	18299	5.35	5
0	18300	5.35	3
0	18301	5.35	5
0	18302	5.35	8
0	18303	5.35	5
0	18304	5.35	3
0	18305	5.35	5
0	18306	5.35	3
0	18307	5.35	1
0	18308	5.35	1
0	18397	5.4	3
0	18398	5.4	5
0	18399	5.4	3
0	18400	5.4	5
0	18401	5.4	8
0	18402	5.4	5
0	18403	5.4	3
0	18404	5.4	5
0	18405	5.4	3
0	18406	5.4	1
0	18407	5.4	1
0	18410	5.4	3
0	18411	5.4	5
0	18412	5.4	3
0	18413	5.4	5
0	18414	5.4	8
0	18415	5.4	5
0	18416	5.4	3
0	18417	5.4	5
0	18418	5.4	3
0	18419	5.4	1
0	18420	5.4	1
0	18536	5.45	3
0	18537	5.45	5
0	18538	5.45	3
0	18539	5.45	5
0	18540	5.45	8
0	18541	5.45	5
0	18542	5.45	3
0	18543	5.45	5
0	18544	5.45	3
0	18545	5.45	1
0	18546	5.45	1
0	18697	5.5	3
0	18698	5.5	5
0	18699	5.5	3
0	18700	5.5	5
0	18701	5.5	8
0	18702	5.5	5
0	18703	5.5	3
0	18704	5.5	5
0	18705	5.5	3
0	18706	5.5	1
0	18707	5.5	1
0	18710	5.5	3
0	18711	5.5	5
0	18712	5.5	3
0	18713	5.5	5
0	18714	5.5	8
0	18715	5.5	5
0	18716	5.5	3
0	18717	5.5	5
0	18718	5.5	3
0	18719	5.5	1
0	18720	5.5	1
0	19213	5.55	3
0	19214	5.55	5
0	19215	5.55	3
0	19216	5.55	5
0	19217	5.55	8
0	19218	5.55	5
0	19219	5.55	3
0	19220	5.55	5
0	19221	5.55	3
0	19222	5.55	1
0	19223	5.55	1
0	19567	5.6	3
0	19568	5.6	5
0	19569	5.6	3
0	19570	5.6	5
0	19571	5.6	8
0	19572	5.6	5
0	19573	5.6	3
0	19574	5.6	5
0	19575	5.6	3
0	19576	5.6	1
0	19577	5.6	1
0	19580	5.6	3
0	19581	5.6	5
0	19582	5.6	3
0	19583	5.6	5
0	19584	5.6	8
0	19585	5.6	5
0	19586	5.6	3
0	19587	5.6	5
0	19588	5.6	3
0	19589	5.6	1
0	19590	5.6	1
0	20077	5.65	3
0	20078	5.65	5
0	20079	5.65	3
0	20080	5.65	5
0	20081	5.65	8
0	20082	5.65	5
0	20083	5.65	3
0	20084	5.65	5
0	20085	5.65	3
0	20086	5.65	1
0	20087	5.65	1
0	20393	5.7	3
0	20394	5.7	5
0	20395	5.7	3
0	20396	5.7	5
0	20397	5.7	8
0	20398	5.7	5
0	20399	5.7	3
0	20400	5.7	5
0	20401	5.7	3
0	20402	5.7	1
0	20403	5.7	1
0	20406	5.7	3
0	20407	5.7	5
0	20408	5.7	3
0	20409	5.7	5
0	20410	5.7	8
0	20411	5.7	5
0	20412	5.7	3
0	20413	5.7	5
0	20414	5.7	3
0	20415	5.7	1
0	20416	5.7	1
0	20596	5.75	3
0	20597	5.75	5
0	20598	5.75	3
0	20599	5.75	5
0	20600	5.75	8
0	20601	5.75	5
0	20602	5.75	3
0	20603	5.75	5
0	20604	5.75	3
0	20605	5.75	1
0	20606	5.75	1
0	20764	5.8	3
0	20765	5.8	5
0	20766	5.8	3
0	20767	5.8	5
0	20768	5.8	8
0	20769	5.8	5
0	20770	5.8	3
0	20771	5.8	5
0	20772	5.8	3
0	20773	5.8	1
0	20774	5.8	1
0	20777	5.8	3
0	20778	5.8	5
0	20779	5.8	3
0	20780	5.8	5
0	20781	5.8	8
0	20782	5.8	5
0	20783	5.8	3
0	20784	5.8	5
0	20785	5.8	3
0	20786	5.8	1
0	20787	5.8	1
0	20898	5.85	3
0	20899	5.85	5
0	20900	5.85	3
0	20901	5.85	5
0	20902	5.85	8
0	20903	5.85	5
0	20904	5.85	3
0	20905	5.85	5
0	20906	5.85	3
0	20907	5.85	1
0	20908	5.85	1
0	20997	5.9	3
0	20998	5.9	5
0	20999	5.9	3
0	21000	5.9	5
0	21001	5.9	8
0	21002	5.9	5
0	21003	5.9	3
0	21004	5.9	5
0	21005	5.9	3
0	21006	5.9	1
0	21007	5.9	1
0	21010	5.9	3
0	21011	5.9	5
0	21012	5.9	3
0	21013	5.9	5
0	21014	5.9	8
0	21015	5.9	5
0	21016	5.9	3
0	21017	5.9	5
0	21018	5.9	3
0	21019	5.9	1
0	21020	5.9	1
0	21131	5.95	3
0	21132	5.95	5
0	21133	5.95	3
0	21134	5.95	5
0	21135	5.95	8
0	21136	5.95	5
0	21137	5.95	3
0	21138	5.95	5
0	21139	5.95	3
0	21140	5.95	1
0	21141	5.95	1
0	21264	6	3
0	21265	6	5
0	21266	6	3
0	21267	6	5
0	21268	6	8
0	21269	6	5
0	21270	6	3
0	21271	6	5
0	21272	6	3
0	21273	6	1
0	21274	6	1
0	21277	6	3
0	21278	6	5
0	21279	6	3
0	21280	6	5
0	21281	6	8
0	21282	6	5
0	21283	6	3
0	21284	6	5
0	21285	6	3
0	21286	6	1
0	21287	6	1
0	21438	6.05	3
0	21439	6.05	5
0	21440	6.05	3
0	21441	6.05	5
0	21442	6.05	8
0	21443	6.05	5
0	21444	6.05	3
0	21445	6.05	5
0	21446	6.05	3
0	21447	6.05	1
0	21448	6.05	1
0	21881	6.1	3
0	21882	6.1	5
0	21883	6.1	3
0	21884	6.1	5
0	21885	6.1	8
0	21886	6.1	5
0	21887	6.1	3
0	21888	6.1	5
0	21889	6.1	3
0	21890	6.1	1
0	21891	6.1	1
0	21894	6.1	3
0	21895	6.1	5
0	21896	6.1	3
0	21897	6.1	5
0	21898	6.1	8
0	21899	6.1	5
0	21900	6.1	3
0	21901	6.1	5
0	21902	6.1	3
0	21903	6.1	1
0	21904	6.1	1
0	22194	6.15	3
0	22195	6.15	5
0	22196	6.15	3
0	22197	6.15	5
0	22198	6.15	8
0	22199	6.15	5
0	22200	6.15	3
0	22201	6.15	5
0	22202	6.15	3
0	22203	6.15	1
0	22204	6.15	1
0	22544	6.2	3
0	22545	6.2	5
0	22546	6.2	3
0	22547	6.2	5
0	22548	6.2	8
0	22549	6.2	5
0	22550	6.2	3
0	22551	6.2	5
0	22552	6.2	3
0	22553	6.2	1
0	22554	6.2	1
0	22557	6.2	3
0	22558	6.2	5
0	22559	6.2	3
0	22560	6.2	5
0	22561	6.2	8
0	22562	6.2	5
0	22563	6.2	3
0	22564	6.2	5
0	22565	6.2	3
0	22566	6.2	1
0	22567	6.2	1
0	22837	6.25	3
0	22838	6.25	5
0	22839	6.25	3
0	22840	6.25	5
0	22841	6.25	8
0	22842	6.25	5
0	22843	6.25	3
0	22844	6.25	5
0	22845	6.25	3
0	22846	6.25	1
0	22847	6.25	1
0	22941	6.3	3
0	22942	6.3	5
0	22943	6.3	3
0	22944	6.3	5
0	22945	6.3	8
0	22946	6.3	5
0	22947	6.3	3
0	22948	6.3	5
0	22949	6.3	3
0	22950	6.3	1
0	22951	6.3	1
0	22954	6.3	3
0	22955	6.3	5
0	22956	6.3	3
0	22957	6.3	5
0	22958	6.3	8
0	22959	6.3	5
0	22960	6.3	3
0	22961	6.3	5
0	22962	6.3	3
0	22963	6.3	1
0	22964	6.3	1
0	23144	6.35	3
0	23145	6.35	5
0	23146	6.35	3
0	23147	6.35	5
0	23148	6.35	8
0	23149	6.35	5
0	23150	6.35	3
0	23151	6.35	5
0	23152	6.35	3
0	23153	6.35	1
0	23154	6.35	1
0	23243	6.4	3
0	23244	6.4	5
0	23245	6.4	3
0	23246	6.4	5
0	23247	6.4	8
0	23248	6.4	5
0	23249	6.4	3
0	23250	6.4	5
0	23251	6.4	3
0	23252	6.4	1
0	23253	6.4	1
0	23256	6.4	3
0	23257	6.4	5
0	23258	6.4	3
0	23259	6.4	5
0	23260	6.4	8
0	23261	6.4	5
0	23262	6.4	3
0	23263	6.4	5
0	23264	6.4	3
0	23265	6.4	1
0	23266	6.4	1
0	23377	6.45	3
0	23378	6.45	5
0	23379	6.45	3
0	23380	6.45	5
0	23381	6.45	8
0	23382	6.45	5
0	23383	6.45	3
0	23384	6.45	5
0	23385	6.45	3
0	23386	6.45	1
0	23387	6.45	1
0	23487	6.5	3
0	23488	6.5	5
0	23489	6.5	3
0	23490	6.5	5
0	23491	6.5	8
0	23492	6.5	5
0	23493	6.5	3
0	23494	6.5	5
0	23495	6.5	3
0	23496	6.5	1
0	23497	6.5	1
0	23500	6.5	3
0	23501	6.5	5
0	23502	6.5	3
0	23503	6.5	5
0	23504	6.5	8
0	23505	6.5	5
0	23506	6.5	3
0	23507	6.5	5
0	23508	6.5	3
0	23509	6.5	1
0	23510	6.5	1
0	23649	6.55	3
0	23650	6.55	5
0	23651	6.55	3
0	23652	6.55	5
0	23653	6.55	8
0	23654	6.55	5
0	23655	6.55	3
0	23656	6.55	5
0	23657	6.55	3
0	23658	6.55	1
0	23659	6.55	1
0	23840	6.6	3
0	23841	6.6	5
0	23842	6.6	3
0	23843	6.6	5
0	23844	6.6	8
0	23845	6.6	5
0	23846	6.6	3
0	23847	6.6	5
0	23848	6.6	3
0	23849	6.6	1
0	23850	6.6	1
0	23853	6.6	3
0	23854	6.6	5
0	23855	6.6	3
0	23856	6.6	5
0	23857	6.6	8
0	23858	6.6	5
0	23859	6.6	3
0	23860	6.6	5
0	23861	6.6	3
0	23862	6.6	1
0	23863	6.6	1
0	24303	6.65	3
0	24304	6.65	5
0	24305	6.65	3
0	24306	6.65	5
0	24307	6.65	8
0	24308	6.65	5
0	24309	6.65	3
0	24310	6.65	5
0	24311	6.65	3
0	24312	6.65	1
0	24313	6.65	1
0	24594	6.7	3
0	24595	6.7	5
0	24596	6.7	3
0	24597	6.7	5
0	24598	6.7	8
0	24599	6.7	5
0	24600	6.7	3
0	24601	6.7	5
0	24602	6.7	3
0	24603	6.7	1
0	24604	6.7	1
0	24607	6.7	3
0	24608	6.7	5
0	24609	6.7	3
0	24610	6.7	5
0	24611	6.7	8
0	24612	6.7	5
0	24613	6.7	3
0	24614	6.7	5
0	24615	6.7	3
0	24616	6.7	1
0	24617	6.7	1
0	24886	6.75	3
0	24887	6.75	5
0	24888	6.75	3
0	24889	6.75	5
0	24890	6.75	8
0	24891	6.75	5
0	24892	6.75	3
0	24893	6.75	5
0	24894	6.75	3
0	24895	6.75	1
0	24896	6.75	1
0	25101	6.8	3
0	25102	6.8	5
0	25103	6.8	3
0	25104	6.8	5
0	25105	6.8	8
0	25106	6.8	5
0	25107	6.8	3
0	25108	6.8	5
0	25109	6.8	3
0	25110	6.8	1
0	25111	6.8	1
0	25114	6.8	3
0	25115	6.8	5
0	25116	6.8	3
0	25117	6.8	5
0	25118	6.8	8
0	25119	6.8	5
0	25120	6.8	3
0	25121	6.8	5
0	25122	6.8	3
0	25123	6.8	1
0	25124	6.8	1
0	25240	6.85	3
0	25241	6.85	5
0	25242	6.85	3
0	25243	6.85	5
0	25244	6.85	8
0	25245	6.85	5
0	25246	6.85	3
0	25247	6.85	5
0	25248	6.85	3
0	25249	6.85	1
0	25250	6.85	1
0	25408	6.9	3
0	25409	6.9	5
0	25410	6.9	3
0	25411	6.9	5
0	25412	6.9	8
0	25413	6.9	5
0	25414	6.9	3
0	25415	6.9	5
0	25416	6.9	3
0	25417	6.9	1
0	25418	6.9	1
0	25421	6.9	3
0	25422	6.9	5
0	25423	6.9	3
0	25424	6.9	5
0	25425	6.9	8
0	25426	6.9	5
0	25427	6.9	3
0	25428	6.9	5
0	25429	6.9	3
0	25430	6.9	1
0	25431	6.9	1
0	25542	6.95	3
0	25543	6.95	5
0	25544	6.95	3
0	25545	6.95	5
0	25546	6.95	8
0	25547	6.95	5
0	25548	6.95	3
0	25549	6.95	5
0	25550	6.95	3
0	25551	6.95	1
0	25552	6.95	1
0	25652	7	3
0	25653	7	5
0	25654	7	3
0	25655	7	5
0	25656	7	8
0	25657	7	5
0	25658	7	3
0	25659	7	5
0	25660	7	3
0	25661	7	1
0	25662	7	1
0	25665	7	3
0	25666	7	5
0	25667	7	3
0	25668	7	5
0	25669	7	8
0	25670	7	5
0	25671	7	3
0	25672	7	5
0	25673	7	3
0	25674	7	1
0	25675	7	1
0	25786	7.05	3
0	25787	7.05	5
0	25788	7.05	3
0	25789	7.05	5
0	25790	7.05	8
0	25791	7.05	5
0	25792	7.05	3
0	25793	7.05	5
0	25794	7.05	3
0	25795	7.05	1
0	25796	7.05	1
0	25936	7.1	3
0	25937	7.1	5
0	25938	7.1	3
0	25939	7.1	5
0	25940	7.1	8
0	25941	7.1	5
0	25942	7.1	3
0	25943	7.1	5
0	25944	7.1	3
0	25945	7.1	1
0	25946	7.1	1
0	25949	7.1	3
0	25950	7.1	5
0	25951	7.1	3
0	25952	7.1	5
0	25953	7.1	8
0	25954	7.1	5
0	25955	7.1	3
0	25956	7.1	5
0	25957	7.1	3
0	25958	7.1	1
0	25959	7.1	1
0	26139	7.15	3
0	26140	7.15	5
0	26141	7.15	3
0	26142	7.15	5
0	26143	7.15	8
0	26144	7.15	5
0	26145	7.15	3
0	26146	7.15	5
0	26147	7.15	3
0	26148	7.15	1
0	26149	7.15	1
0	26508	7.2	3
0	26509	7.2	5
0	26510	7.2	3
0	26511	7.2	5
0	26512	7.2	8
0	26513	7.2	5
0	26514	7.2	3
0	26515	7.2	5
0	26516	7.2	3
0	26517	7.2	1
0	26518	7.2	1
0	26521	7.2	3
0	26522	7.2	5
0	26523	7.2	3
0	26524	7.2	5
0	26525	7.2	8
0	26526	7.2	5
0	26527	7.2	3
0	26528	7.2	5
0	26529	7.2	3
0	26530	7.2	1
0	26531	7.2	1
0	26821	7.25	3
0	26822	7.25	5
0	26823	7.25	3
0	26824	7.25	5
0	26825	7.25	8
0	26826	7.25	5
0	26827	7.25	3
0	26828	7.25	5
0	26829	7.25	3
0	26830	7.25	1
0	26831	7.25	1
0	27149	7.3	3
0	27150	7.3	5
0	27151	7.3	3
0	27152	7.3	5
0	27153	7.3	8
0	27154	7.3	5
0	27155	7.3	3
0	27156	7.3	5
0	27157	7.3	3
0	27158	7.3	1
0	27159	7.3	1
0	27162	7.3	3
0	27163	7.3	5
0	27164	7.3	3
0	27165	7.3	5
0	27166	7.3	8
0	27167	7.3	5
0	27168	7.3	3
0	27169	7.3	5
0	27170	7.3	3
0	27171	7.3	1
0	27172	7.3	1
0	27468	7.35	3
0	27469	7.35	5
0	27470	7.35	3
0	27471	7.35	5
0	27472	7.35	8
0	27473	7.35	5
0	27474	7.35	3
0	27475	7.35	5
0	27476	7.35	3
0	27477	7.35	1
0	27478	7.35	1
0	27704	7.4	3
0	27705	7.4	5
0	27706	7.4	3
0	27707	7.4	5
0	27708	7.4	8
0	27709	7.4	5
0	27710	7.4	3
0	27711	7.4	5
0	27712	7.4	3
0	27713	7.4	1
0	27714	7.4	1
0	27717	7.4	3
0	27718	7.4	5
0	27719	7.4	3
0	27720	7.4	5
0	27721	7.4	8
0	27722	7.4	5
0	27723	7.4	3
0	27724	7.4	5
0	27725	7.4	3
0	27726	7.4	1
0	27727	7.4	1
0	27919	7.45	3
0	27920	7.45	5
0	27921	7.45	3
0	27922	7.45	5
0	27923	7.45	8
0	27924	7.45	5
0	27925	7.45	3
0	27926	7.45	5
0	27927	7.45	3
0	27928	7.45	1
0	27929	7.45	1
0	28018	7.5	3
0	28019	7.5	5
0	28020	7.5	3
0	28021	7.5	5
0	28022	7.5	8
0	28023	7.5	5
0	28024	7.5	3
0	28025	7.5	5
0	28026	7.5	3
0	28027	7.5	1
0	28028	7.5	1
0	28031	7.5	3
0	28032	7.5	5
0	28033	7.5	3
0	28034	7.5	5
0	28035	7.5	8
0	28036	7.5	5
0	28037	7.5	3
0	28038	7.5	5
0	28039	7.5	3
0	28040	7.5	1
0	28041	7.5	1
0	28152	7.55	3
0	28153	7.55	5
0	28154	7.55	3
0	28155	7.55	5
0	28156	7.55	8
0	28157	7.55	5
0	28158	7.55	3
0	28159	7.55	5
0	28160	7.55	3
0	28161	7.55	1
0	28162	7.55	1
0	28251	7.6	3
0	28252	7.6	5
0	28253	7.6	3
0	28254	7.6	5
0	28255	7.6	8
0	28256	7.6	5
0	28257	7.6	3
0	28258	7.6	5
0	28259	7.6	3
0	28260	7.6	1
0	28261	7.6	1
0	28264	7.6	3
0	28265	7.6	5
0	28266	7.6	3
0	28267	7.6	5
0	28268	7.6	8
0	28269	7.6	5
0	28270	7.6	3
0	28271	7.6	5
0	28272	7.6	3
0	28273	7.6	1
0	28274	7.6	1
0	28431	7.65	3
0	28432	7.65	5
0	28433	7.65	3
0	28434	7.65	5
0	28435	7.65	8
0	28436	7.65	5
0	28437	7.65	3
0	28438	7.65	5
0	28439	7.65	3
0	28440	7.65	1
0	28441	7.65	1
0	28535	7.7	3
0	28536	7.7	5
0	28537	7.7	3
0	28538	7.7	5
0	28539	7.7	8
0	28540	7.7	5
0	28541	7.7	3
0	28542	7.7	5
0	28543	7.7	3
0	28544	7.7	1
0	28545	7.7	1
0	28548	7.7	3
0	28549	7.7	5
0	28550	7.7	3
0	28551	7.7	5
0	28552	7.7	8
0	28553	7.7	5
0	28554	7.7	3
0	28555	7.7	5
0	28556	7.7	3
0	28557	7.7	1
0	28558	7.7	1
0	28917	7.75	3
0	28918	7.75	5
0	28919	7.75	3
0	28920	7.75	5
0	28921	7.75	8
0	28922	7.75	5
0	28923	7.75	3
0	28924	7.75	5
0	28925	7.75	3
0	28926	7.75	1
0	28927	7.75	1
0	29117	7.8	3
0	29118	7.8	5
0	29119	7.8	3
0	29120	7.8	5
0	29121	7.8	8
0	29122	7.8	5
0	29123	7.8	3
0	29124	7.8	5
0	29125	7.8	3
0	29126	7.8	1
0	29127	7.8	1
0	29130	7.8	3
0	29131	7.8	5
0	29132	7.8	3
0	29133	7.8	5
0	29134	7.8	8
0	29135	7.8	5
0	29136	7.8	3
0	29137	7.8	5
0	29138	7.8	3
0	29139	7.8	1
0	29140	7.8	1
0	29297	7.85	3
0	29298	7.85	5
0	29299	7.85	3
0	29300	7.85	5
0	29301	7.85	8
0	29302	7.85	5
0	29303	7.85	3
0	29304	7.85	5
0	29305	7.85	3
0	29306	7.85	1
0	29307	7.85	1
0	29566	7.9	3
0	29567	7.9	5
0	29568	7.9	3
0	29569	7.9	5
0	29570	7.9	8
0	29571	7.9	5
0	29572	7.9	3
0	29573	7.9	5
0	29574	7.9	3
0	29575	7.9	1
0	29576	7.9	1
0	29579	7.9	3
0	29580	7.9	5
0	29581	7.9	3
0	29582	7.9	5
0	29583	7.9	8
0	29584	7.9	5
0	29585	7.9	3
0	29586	7.9	5
0	29587	7.9	3
0	29588	7.9	1
0	29589	7.9	1
0	29708	7.95	3
0	29709	7.95	5
0	29710	7.95	3
0	29711	7.95	5
0	29712	7.95	8
0	29713	7.95	5
0	29714	7.95	3
0	29715	7.95	5
0	29716	7.95	3
0	29717	7.95	1
0	29718	7.95	1
0	29876	8	3
0	29877	8	5
0	29878	8	3
0	29879	8	5
0	29880	8	8
0	29881	8	5
0	29882	8	3
0	29883	8	5
0	29884	8	3
0	29885	8	1
0	29886	8	1
0	29889	8	3
0	29890	8	5
0	29891	8	3
0	29892	8	5
0	29893	8	8
0	29894	8	5
0	29895	8	3
0	29896	8	5
0	29897	8	3
0	29898	8	1
0	29899	8	1
0	30010	8.05	3
0	30011	8.05	5
0	30012	8.05	3
0	30013	8.05	5
0	30014	8.05	8
0	30015	8.05	5
0	30016	8.05	3
0	30017	8.05	5
0	30018	8.05	3
0	30019	8.05	1
0	30020	8.05	1
0	30120	8.1	3
0	30121	8.1	5
0	30122	8.1	3
0	30123	8.1	5
0	30124	8.1	8
0	30125	8.1	5
0	30126	8.1	3
0	30127	8.1	5
0	30128	8.1	3
0	30129	8.1	1
0	30130	8.1	1
0	30133	8.1	3
0	30134	8.1	5
0	30135	8.1	3
0	30136	8.1	5
0	30137	8.1	8
0	30138	8.1	5
0	30139	8.1	3
0	30140	8.1	5
0	30141	8.1	3
0	30142	8.1	1
0	30143	8.1	1
0	30267	8.15	3
0	30268	8.15	5
0	30269	8.15	3
0	30270	8.15	5
0	30271	8.15	8
0	30272	8.15	5
0	30273	8.15	3
0	30274	8.15	5
0	30275	8.15	3
0	30276	8.15	1
0	30277	8.15	1
0	30435	8.2	3
0	30436	8.2	5
0	30437	8.2	3
0	30438	8.2	5
0	30439	8.2	8
0	30440	8.2	5
0	30441	8.2	3
0	30442	8.2	5
0	30443	8.2	3
0	30444	8.2	1
0	30445	8.2	1
0	30448	8.2	3
0	30449	8.2	5
0	30450	8.2	3
0	30451	8.2	5
0	30452	8.2	8
0	30453	8.2	5
0	30454	8.2	3
0	30455	8.2	5
0	30456	8.2	3
0	30457	8.2	1
0	30458	8.2	1
0	30569	8.25	3
0	30570	8.25	5
0	30571	8.25	3
0	30572	8.25	5
0	30573	8.25	8
0	30574	8.25	5
0	30575	8.25	3
0	30576	8.25	5
0	30577	8.25	3
0	30578	8.25	1
0	30579	8.25	1
0	30914	8.3	3
0	30915	8.3	5
0	30916	8.3	3
0	30917	8.3	5
0	30918	8.3	8
0	30919	8.3	5
0	30920	8.3	3
0	30921	8.3	5
0	30922	8.3	3
0	30923	8.3	1
0	30924	8.3	1
0	30927	8.3	3
0	30928	8.3	5
0	30929	8.3	3
0	30930	8.3	5
0	30931	8.3	8
0	30932	8.3	5
0	30933	8.3	3
0	30934	8.3	5
0	30935	8.3	3
0	30936	8.3	1
0	30937	8.3	1
0	31216	8.35	3
0	31217	8.35	5
0	31218	8.35	3
0	31219	8.35	5
0	31220	8.35	8
0	31221	8.35	5
0	31222	8.35	3
0	31223	8.35	5
0	31224	8.35	3
0	31225	8.35	1
0	31226	8.35	1
0	31362	8.4	3
0	31363	8.4	5
0	31364	8.4	3
0	31365	8.4	5
0	31366	8.4	8
0	31367	8.4	5
0	31368	8.4	3
0	31369	8.4	5
0	31370	8.4	3
0	31371	8.4	1
0	31372	8.4	1
0	31375	8.4	3
0	31376	8.4	5
0	31377	8.4	3
0	31378	8.4	5
0	31379	8.4	8
0	31380	8.4	5
0	31381	8.4	3
0	31382	8.4	5
0	31383	8.4	3
0	31384	8.4	1
0	31385	8.4	1
0	31668	8.45	3
0	31669	8.45	5
0	31670	8.45	3
0	31671	8.45	5
0	31672	8.45	8
0	31673	8.45	5
0	31674	8.45	3
0	31675	8.45	5
0	31676	8.45	3
0	31677	8.45	1
0	31678	8.45	1
0	31834	8.5	3
0	31835	8.5	5
0	31836	8.5	3
0	31837	8.5	5
0	31838	8.5	8
0	31839	8.5	5
0	31840	8.5	3
0	31841	8.5	5
0	31842	8.5	3
0	31843	8.5	1
0	31844	8.5	1
0	31847	8.5	3
0	31848	8.5	5
0	31849	8.5	3
0	31850	8.5	5
0	31851	8.5	8
0	31852	8.5	5
0	31853	8.5	3
0	31854	8.5	5
0	31855	8.5	3
0	31856	8.5	1
0	31857	8.5	1
0	32058	8.55	3
0	32059	8.55	5
0	32060	8.55	3
0	32061	8.55	5
0	32062	8.55	8
0	32063	8.55	5
0	32064	8.55	3
0	32065	8.55	5
0	32066	8.55	3
0	32067	8.55	1
0	32068	8.55	1
0	32157	8.6	3
0	32158	8.6	5
0	32159	8.6	3
0	32160	8.6	5
0	32161	8.6	8
0	32162	8.6	5
0	32163	8.6	3
0	32164	8.6	5
0	32165	8.6	3
0	32166	8.6	1
0	32167	8.6	1
0	32170	8.6	3
0	32171	8.6	5
0	32172	8.6	3
0	32173	8.6	5
0	32174	8.6	8
0	32175	8.6	5
0	32176	8.6	3
0	32177	8.6	5
0	32178	8.6	3
0	32179	8.6	1
0	32180	8.6	1
0	32291	8.65	3
0	32292	8.65	5
0	32293	8.65	3
0	32294	8.65	5
0	32295	8.65	8
0	32296	8.65	5
0	32297	8.65	3
0	32298	8.65	5
0	32299	8.65	3
0	32300	8.65	1
0	32301	8.65	1
0	32418	8.7	3
0	32419	8.7	5
0	32420	8.7	3
0	32421	8.7	5
0	32422	8.7	8
0	32423	8.7	5
0	32424	8.7	3
0	32425	8.7	5
0	32426	8.7	3
0	32427	8.7	1
0	32428	8.7	1
0	32431	8.7	3
0	32432	8.7	5
0	32433	8.7	3
0	32434	8.7	5
0	32435	8.7	8
0	32436	8.7	5
0	32437	8.7	3
0	32438	8.7	5
0	32439	8.7	3
0	32440	8.7	1
0	32441	8.7	1
0	32621	8.75	3
0	32622	8.75	5
0	32623	8.75	3
0	32624	8.75	5
0	32625	8.75	8
0	32626	8.75	5
0	32627	8.75	3
0	32628	8.75	5
0	32629	8.75	3
0	32630	8.75	1
0	32631	8.75	1
0	32743	8.8	3
0	32744	8.8	5
0	32745	8.8	3
0	32746	8.8	5
0	32747	8.8	8
0	32748	8.8	5
0	32749	8.8	3
0	32750	8.8	5
0	32751	8.8	3
0	32752	8.8	1
0	32753	8.8	1
0	32756	8.8	3
0	32757	8.8	5
0	32758	8.8	3
0	32759	8.8	5
0	32760	8.8	8
0	32761	8.8	5
0	32762	8.8	3
0	32763	8.8	5
0	32764	8.8	3
0	32765	8.8	1
0	32766	8.8	1
0	33101	8.85	3
0	33102	8.85	5
0	33103	8.85	3
0	33104	8.85	5
0	33105	8.85	8
0	33106	8.85	5
0	33107	8.85	3
0	33108	8.85	5
0	33109	8.85	3
0	33110	8.85	1
0	33111	8.85	1
0	33354	8.9	3
0	33355	8.9	5
0	33356	8.9	3
0	33357	8.9	5
0	33358	8.9	8
0	33359	8.9	5
0	33360	8.9	3
0	33361	8.9	5
0	33362	8.9	3
0	33363	8.9	1
0	33364	8.9	1
0	33367	8.9	3
0	33368	8.9	5
0	33369	8.9	3
0	33370	8.9	5
0	33371	8.9	8
0	33372	8.9	5
0	33373	8.9	3
0	33374	8.9	5
0	33375	8.9	3
0	33376	8.9	1
0	33377	8.9	1
0	33551	8.95	3
0	33552	8.95	5
0	33553	8.95	3
0	33554	8.95	5
0	33555	8.95	8
0	33556	8.95	5
0	33557	8.95	3
0	33558	8.95	5
0	33559	8.95	3
0	33560	8.95	1
0	33561	8.95	1
0	33765	9	3
0	33766	9	5
0	33767	9	3
0	33768	9	5
0	33769	9	8
0	33770	9	5
0	33771	9	3
0	33772	9	5
0	33773	9	3
0	33774	9	1
0	33775	9	1
0	33778	9	3
0	33779	9	5
0	33780	9	3
0	33781	9	5
0	33782	9	8
0	33783	9	5
0	33784	9	3
0	33785	9	5
0	33786	9	3
0	33787	9	1
0	33788	9	1
0	33950	9.05	3
0	33951	9.05	5
0	33952	9.05	3
0	33953	9.05	5
0	33954	9.05	8
0	33955	9.05	5
0	33956	9.05	3
0	33957	9.05	5
0	33958	9.05	3
0	33959	9.05	1
0	33960	9.05	1
0	34129	9.1	3
0	34130	9.1	5
0	34131	9.1	3
0	34132	9.1	5
0	34133	9.1	8
0	34134	9.1	5
0	34135	9.1	3
0	34136	9.1	5
0	34137	9.1	3
0	34138	9.1	1
0	34139	9.1	1
0	34142	9.1	3
0	34143	9.1	5
0	34144	9.1	3
0	34145	9.1	5
0	34146	9.1	8
0	34147	9.1	5
0	34148	9.1	3
0	34149	9.1	5
0	34150	9.1	3
0	34151	9.1	1
0	34152	9.1	1
0	34276	9.15	3
0	34277	9.15	5
0	34278	9.15	3
0	34279	9.15	5
0	34280	9.15	8
0	34281	9.15	5
0	34282	9.15	3
0	34283	9.15	5
0	34284	9.15	3
0	34285	9.15	1
0	34286	9.15	1
0	34375	9.2	3
0	34376	9.2	5
0	34377	9.2	3
0	34378	9.2	5
0	34379	9.2	8
0	34380	9.2	5
0	34381	9.2	3
0	34382	9.2	5
0	34383	9.2	3
0	34384	9.2	1
0	34385	9.2	1
0	34388	9.2	3
0	34389	9.2	5
0	34390	9.2	3
0	34391	9.2	5
0	34392	9.2	8
0	34393	9.2	5
0	34394	9.2	3
0	34395	9.2	5
0	34396	9.2	3
0	34397	9.2	1
0	34398	9.2	1
0	34537	9.25	3
0	34538	9.25	5
0	34539	9.25	3
0	34540	9.25	5
0	34541	9.25	8
0	34542	9.25	5
0	34543	9.25	3
0	34544	9.25	5
0	34545	9.25	3
0	34546	9.25	1
0	34547	9.25	1
0	34687	9.3	3
0	34688	9.3	5
0	34689	9.3	3
0	34690	9.3	5
0	34691	9.3	8
0	34692	9.3	5
0	34693	9.3	3
0	34694	9.3	5
0	34695	9.3	3
0	34696	9.3	1
0	34697	9.3	1
0	34700	9.3	3
0	34701	9.3	5
0	34702	9.3	3
0	34703	9.3	5
0	34704	9.3	8
0	34705	9.3	5
0	34706	9.3	3
0	34707	9.3	5
0	34708	9.3	3
0	34709	9.3	1
0	34710	9.3	1
0	34844	9.35	3
0	34845	9.35	5
0	34846	9.35	3
0	34847	9.35	5
0	34848	9.35	8
0	34849	9.35	5
0	34850	9.35	3
0	34851	9.35	5
0	34852	9.35	3
0	34853	9.35	1
0	34854	9.35	1
0	35168	9.4	3
0	35169	9.4	5
0	35170	9.4	3
0	35171	9.4	5
0	35172	9.4	8
0	35173	9.4	5
0	35174	9.4	3
0	35175	9.4	5
0	35176	9.4	3
0	35177	9.4	1
0	35178	9.4	1
0	35181	9.4	3
0	35182	9.4	5
0	35183	9.4	3
0	35184	9.4	5
0	35185	9.4	8
0	35186	9.4	5
0	35187	9.4	3
0	35188	9.4	5
0	35189	9.4	3
0	35190	9.4	1
0	35191	9.4	1
0	35553	9.45	3
0	35554	9.45	5
0	35555	9.45	3
0	35556	9.45	5
0	35557	9.45	8
0	35558	9.45	5
0	35559	9.45	3
0	35560	9.45	5
0	35561	9.45	3
0	35562	9.45	1
0	35563	9.45	1
0	35799	9.5	3
0	35800	9.5	5
0	35801	9.5	3
0	35802	9.5	5
0	35803	9.5	8
0	35804	9.5	5
0	35805	9.5	3
0	35806	9.5	5
0	35807	9.5	3
0	35808	9.5	1
0	35809	9.5	1
0	35812	9.5	3
0	35813	9.5	5
0	35814	9.5	3
0	35815	9.5	5
0	35816	9.5	8
0	35817	9.5	5
0	35818	9.5	3
0	35819	9.5	5
0	35820	9.5	3
0	35821	9.5	1
0	35822	9.5	1
0	36042	9.55	3
0	36043	9.55	5
0	36044	9.55	3
0	36045	9.55	5
0	36046	9.55	8
0	36047	9.55	5
0	36048	9.55	3
0	36049	9.55	5
0	36050	9.55	3
0	36051	9.55	1
0	36052	9.55	1
0	36210	9.6	3
0	36211	9.6	5
0	36212	9.6	3
0	36213	9.6	5
0	36214	9.6	8
0	36215	9.6	5
0	36216	9.6	3
0	36217	9.6	5
0	36218	9.6	3
0	36219	9.6	1
0	36220	9.6	1
0	36223	9.6	3
0	36224	9.6	5
0	36225	9.6	3
0	36226	9.6	5
0	36227	9.6	8
0	36228	9.6	5
0	36229	9.6	3
0	36230	9.6	5
0	36231	9.6	3
0	36232	9.6	1
0	36233	9.6	1
0	36413	9.65	3
0	36414	9.65	5
0	36415	9.65	3
0	36416	9.65	5
0	36417	9.65	8
0	36418	9.65	5
0	36419	9.65	3
0	36420	9.65	5
0	36421	9.65	3
0	36422	9.65	1
0	36423	9.65	1
0	36512	9.7	3
0	36513	9.7	5
0	36514	9.7	3
0	36515	9.7	5
0	36516	9.7	8
0	36517	9.7	5
0	36518	9.7	3
0	36519	9.7	5
0	36520	9.7	3
0	36521	9.7	1
0	36522	9.7	1
0	36525	9.7	3
0	36526	9.7	5
0	36527	9.7	3
0	36528	9.7	5
0	36529	9.7	8
0	36530	9.7	5
0	36531	9.7	3
0	36532	9.7	5
0	36533	9.7	3
0	36534	9.7	1
0	36535	9.7	1
0	36669	9.75	3
0	36670	9.75	5
0	36671	9.75	3
0	36672	9.75	5
0	36673	9.75	8
0	36674	9.75	5
0	36675	9.75	3
0	36676	9.75	5
0	36677	9.75	3
0	36678	9.75	1
0	36679	9.75	1
0	36773	9.8	3
0	36774	9.8	5
0	36775	9.8	3
0	36776	9.8	5
0	36777	9.8	8
0	36778	9.8	5
0	36779	9.8	3
0	36780	9.8	5
0	36781	9.8	3
0	36782	9.8	1
0	36783	9.8	1
0	36786	9.8	3
0	36787	9.8	5
0	36788	9.8	3
0	36789	9.8	5
0	36790	9.8	8
0	36791	9.8	5
0	36792	9.8	3
0	36793	9.8	5
0	36794	9.8	3
0	36795	9.8	1
0	36796	9.8	1
0	36953	9.85	3
0	36954	9.85	5
0	36955	9.85	3
0	36956	9.85	5
0	36957	9.85	8
0	36958	9.85	5
0	36959	9.85	3
0	36960	9.85	5
0	36961	9.85	3
0	36962	9.85	1
0	36963	9.85	1
0	37092	9.9	3
0	37093	9.9	5
0	37094	9.9	3
0	37095	9.9	5
0	37096	9.9	8
0	37097	9.9	5
0	37098	9.9	3
0	37099	9.9	5
0	37100	9.9	3
0	37101	9.9	1
0	37102	9.9	1
0	37105	9.9	3
0	37106	9.9	5
0	37107	9.9	3
0	37108	9.9	5
0	37109	9.9	8
0	37110	9.9	5
0	37111	9.9	3
0	37112	9.9	5
0	37113	9.9	3
0	37114	9.9	1
0	37115	9.9	1
0	37394	9.95	3
0	37395	9.95	5
0	37396	9.95	3
0	37397	9.95	5
0	37398	9.95	8
0	37399	9.95	5
0	37400	9.95	3
0	37401	9.95	5
0	37402	9.95	3
0	37403	9.95	1
0	37404	9.95	1
0	37586	10	3
0	37587	10	5
0	37588	10	3
0	37589	10	5
0	37590	10	8
0	37591	10	5
0	37592	10	3
0	37593	10	5
0	37594	10	3
0	37595	10	1
0	37596	10	1
0	37599	10	3
0	37600	10	5
0	37601	10	3
0	37602	10	5
0	37603	10	8
0	37604	10	5
0	37605	10	3
0	37606	10	5
0	37607	10	3
0	37608	10	1
0	37609	10	1
0	37843	10.05	3
0	37844	10.05	5
0	37845	10.05	3
0	37846	10.05	5
0	37847	10.05	8
0	37848	10.05	5
0	37849	10.05	3
0	37850	10.05	5
0	37851	10.05	3
0	37852	10.05	1
0	37853	10.05	1
0	38123	10.1	3
0	38124	10.1	5
0	38125	10.1	3
0	38126	10.1	5
0	38127	10.1	8
0	38128	10.1	5
0	38129	10.1	3
0	38130	10.1	5
0	38131	10.1	3
0	38132	10.1	1
0	38133	10.1	1
0	38136	10.1	3
0	38137	10.1	5
0	38138	10.1	3
0	38139	10.1	5
0	38140	10.1	8
0	38141	10.1	5
0	38142	10.1	3
0	38143	10.1	5
0	38144	10.1	3
0	38145	10.1	1
0	38146	10.1	1
0	38444	10.15	3
0	38445	10.15	5
0	38446	10.15	3
0	38447	10.15	5
0	38448	10.15	8
0	38449	10.15	5
0	38450	10.15	3
0	38451	10.15	5
0	38452	10.15	3
0	38453	10.15	1
0	38454	10.15	1
0	38594	10.2	3
0	38595	10.2	5
0	38596	10.2	3
0	38597	10.2	5
0	38598	10.2	8
0	38599	10.2	5
0	38600	10.2	3
0	38601	10.2	5
0	38602	10.2	3
0	38603	10.2	1
0	38604	10.2	1
0	38607	10.2	3
0	38608	10.2	5
0	38609	10.2	3
0	38610	10.2	5
0	38611	10.2	8
0	38612	10.2	5
0	38613	10.2	3
0	38614	10.2	5
0	38615	10.2	3
0	38616	10.2	1
0	38617	10.2	1
0	38728	10.25	3
0	38729	10.25	5
0	38730	10.25	3
0	38731	10.25	5
0	38732	10.25	8
0	38733	10.25	5
0	38734	10.25	3
0	38735	10.25	5
0	38736	10.25	3
0	38737	10.25	1
0	38738	10.25	1
0	38850	10.3	3
0	38851	10.3	5
0	38852	10.3	3
0	38853	10.3	5
0	38854	10.3	8
0	38855	10.3	5
0	38856	10.3	3
0	38857	10.3	5
0	38858	10.3	3
0	38859	10.3	1
0	38860	10.3	1
0	38863	10.3	3
0	38864	10.3	5
0	38865	10.3	3
0	38866	10.3	5
0	38867	10.3	8
0	38868	10.3	5
0	38869	10.3	3
0	38870	10.3	5
0	38871	10.3	3
0	38872	10.3	1
0	38873	10.3	1
0	38984	10.35	3
0	38985	10.35	5
0	38986	10.35	3
0	38987	10.35	5
0	38988	10.35	8
0	38989	10.35	5
0	38990	10.35	3
0	38991	10.35	5
0	38992	10.35	3
0	38993	10.35	1
0	38994	10.35	1
0	39106	10.4	3
0	39107	10.4	5
0	39108	10.4	3
0	39109	10.4	5
0	39110	10.4	8
0	39111	10.4	5
0	39112	10.4	3
0	39113	10.4	5
0	39114	10.4	3
0	39115	10.4	1
0	39116	10.4	1
0	39119	10.4	3
0	39120	10.4	5
0	39121	10.4	3
0	39122	10.4	5
0	39123	10.4	8
0	39124	10.4	5
0	39125	10.4	3
0	39126	10.4	5
0	39127	10.4	3
0	39128	10.4	1
0	39129	10.4	1
0	39280	10.45	3
0	39281	10.45	5
0	39282	10.45	3
0	39283	10.45	5
0	39284	10.45	8
0	39285	10.45	5
0	39286	10.45	3
0	39287	10.45	5
0	39288	10.45	3
0	39289	10.45	1
0	39290	10.45	1
0	39545	10.5	3
0	39546	10.5	5
0	39547	10.5	3
0	39548	10.5	5
0	39549	10.5	8
0	39550	10.5	5
0	39551	10.5	3
0	39552	10.5	5
0	39553	10.5	3
0	39554	10.5	1
0	39555	10.5	1
0	39558	10.5	3
0	39559	10.5	5
0	39560	10.5	3
0	39561	10.5	5
0	39562	10.5	8
0	39563	10.5	5
0	39564	10.5	3
0	39565	10.5	5
0	39566	10.5	3
0	39567	10.5	1
0	39568	10.5	1
0	39769	10.55	3
0	39770	10.55	5
0	39771	10.55	3
0	39772	10.55	5
0	39773	10.55	8
0	39774	10.55	5
0	39775	10.55	3
0	39776	10.55	5
0	39777	10.55	3
0	39778	10.55	1
0	39779	10.55	1
0	39913	10.6	3
0	39914	10.6	5
0	39915	10.6	3
0	39916	10.6	5
0	39917	10.6	8
0	39918	10.6	5
0	39919	10.6	3
0	39920	10.6	5
0	39921	10.6	3
0	39922	10.6	1
0	39923	10.6	1
0	39926	10.6	3
0	39927	10.6	5
0	39928	10.6	3
0	39929	10.6	5
0	39930	10.6	8
0	39931	10.6	5
0	39932	10.6	3
0	39933	10.6	5
0	39934	10.6	3
0	39935	10.6	1
0	39936	10.6	1
0	40166	10.65	3
0	40167	10.65	5
0	40168	10.65	3
0	40169	10.65	5
0	40170	10.65	8
0	40171	10.65	5
0	40172	10.65	3
0	40173	10.65	5
0	40174	10.65	3
0	40175	10.65	1
0	40176	10.65	1
0	40299	10.7	3
0	40300	10.7	5
0	40301	10.7	3
0	40302	10.7	5
0	40303	10.7	8
0	40304	10.7	5
0	40305	10.7	3
0	40306	10.7	5
0	40307	10.7	3
0	40308	10.7	1
0	40309	10.7	1
0	40312	10.7	3
0	40313	10.7	5
0	40314	10.7	3
0	40315	10.7	5
0	40316	10.7	8
0	40317	10.7	5
0	40318	10.7	3
0	40319	10.7	5
0	40320	10.7	3
0	40321	10.7	1
0	40322	10.7	1
0	40479	10.75	3
0	40480	10.75	5
0	40481	10.75	3
0	40482	10.75	5
0	40483	10.75	8
0	40484	10.75	5
0	40485	10.75	3
0	40486	10.75	5
0	40487	10.75	3
0	40488	10.75	1
0	40489	10.75	1
0	40578	10.8	3
0	40579	10.8	5
0	40580	10.8	3
0	40581	10.8	5
0	40582	10.8	8
0	40583	10.8	5
0	40584	10.8	3
0	40585	10.8	5
0	40586	10.8	3
0	40587	10.8	1
0	40588	10.8	1
0	40591	10.8	3
0	40592	10.8	5
0	40593	10.8	3
0	40594	10.8	5
0	40595	10.8	8
0	40596	10.8	5
0	40597	10.8	3
0	40598	10.8	5
0	40599	10.8	3
0	40600	10.8	1
0	40601	10.8	1
0	40755	10.85	3
0	40756	10.85	5
0	40757	10.85	3
0	40758	10.85	5
0	40759	10.85	8
0	40760	10.85	5
0	40761	10.85	3
0	40762	10.85	5
0	40763	10.85	3
0	40764	10.85	1
0	40765	10.85	1
0	40859	10.9	3
0	40860	10.9	5
0	40861	10.9	3
0	40862	10.9	5
0	40863	10.9	8
0	40864	10.9	5
0	40865	10.9	3
0	40866	10.9	5
0	40867	10.9	3
0	40868	10.9	1
0	40869	10.9	1
0	40872	10.9	3
0	40873	10.9	5
0	40874	10.9	3
0	40875	10.9	5
0	40876	10.9	8
0	40877	10.9	5
0	40878	10.9	3
0	40879	10.9	5
0	40880	10.9	3
0	40881	10.9	1
0	40882	10.9	1
0	41016	10.95	3
0	41017	10.95	5
0	41018	10.95	3
0	41019	10.95	5
0	41020	10.95	8
0	41021	10.95	5
0	41022	10.95	3
0	41023	10.95	5
0	41024	10.95	3
0	41025	10.95	1
0	41026	10.95	1
0	41132	11	3
0	41133	11	5
0	41134	11	3
0	41135	11	5
0	41136	11	8
0	41137	11	5
0	41138	11	3
0	41139	11	5
0	41140	11	3
0	41141	11	1
0	41142	11	1
0	41145	11	3
0	41146	11	5
0	41147	11	3
0	41148	11	5
0	41149	11	8
0	41150	11	5
0	41151	11	3
0	41152	11	5
0	41153	11	3
0	41154	11	1
0	41155	11	1
0	41443	11.05	3
0	41444	11.05	5
0	41445	11.05	3
0	41446	11.05	5
0	41447	11.05	8
0	41448	11.05	5
0	41449	11.05	3
0	41450	11.05	5
0	41451	11.05	3
0	41452	11.05	1
0	41453	11.05	1
0	41684	11.1	3
0	41685	11.1	5
0	41686	11.1	3
0	41687	11.1	5
0	41688	11.1	8
0	41689	11.1	5
0	41690	11.1	3
0	41691	11.1	5
0	41692	11.1	3
0	41693	11.1	1
0	41694	11.1	1
0	41697	11.1	3
0	41698	11.1	5
0	41699	11.1	3
0	41700	11.1	5
0	41701	11.1	8
0	41702	11.1	5
0	41703	11.1	3
0	41704	11.1	5
0	41705	11.1	3
0	41706	11.1	1
0	41707	11.1	1
0	41915	11.15	3
0	41916	11.15	5
0	41917	11.15	3
0	41918	11.15	5
0	41919	11.15	8
0	41920	11.15	5
0	41921	11.15	3
0	41922	11.15	5
0	41923	11.15	3
0	41924	11.15	1
0	41925	11.15	1
0	42173	11.2	3
0	42174	11.2	5
0	42175	11.2	3
0	42176	11.2	5
0	42177	11.2	8
0	42178	11.2	5
0	42179	11.2	3
0	42180	11.2	5
0	42181	11.2	3
0	42182	11.2	1
0	42183	11.2	1
0	42186	11.2	3
0	42187	11.2	5
0	42188	11.2	3
0	42189	11.2	5
0	42190	11.2	8
0	42191	11.2	5
0	42192	11.2	3
0	42193	11.2	5
0	42194	11.2	3
0	42195	11.2	1
0	42196	11.2	1
0	42407	11.25	3
0	42408	11.25	5
0	42409	11.25	3
0	42410	11.25	5
0	42411	11.25	8
0	42412	11.25	5
0	42413	11.25	3
0	42414	11.25	5
0	42415	11.25	3
0	42416	11.25	1
0	42417	11.25	1
0	42557	11.3	3
0	42558	11.3	5
0	42559	11.3	3
0	42560	11.3	5
0	42561	11.3	8
0	42562	11.3	5
0	42563	11.3	3
0	42564	11.3	5
0	42565	11.3	3
0	42566	11.3	1
0	42567	11.3	1
0	42570	11.3	3
0	42571	11.3	5
0	42572	11.3	3
0	42573	11.3	5
0	42574	11.3	8
0	42575	11.3	5
0	42576	11.3	3
0	42577	11.3	5
0	42578	11.3	3
0	42579	11.3	1
0	42580	11.3	1
0	42691	11.35	3
0	42692	11.35	5
0	42693	11.35	3
0	42694	11.35	5
0	42695	11.35	8
0	42696	11.35	5
0	42697	11.35	3
0	42698	11.35	5
0	42699	11.35	3
0	42700	11.35	1
0	42701	11.35	1
0	42833	11.4	3
0	42834	11.4	5
0	42835	11.4	3
0	42836	11.4	5
0	42837	11.4	8
0	42838	11.4	5
0	42839	11.4	3
0	42840	11.4	5
0	42841	11.4	3
0	42842	11.4	1
0	42843	11.4	1
0	42846	11.4	3
0	42847	11.4	5
0	42848	11.4	3
0	42849	11.4	5
0	42850	11.4	8
0	42851	11.4	5
0	42852	11.4	3
0	42853	11.4	5
0	42854	11.4	3
0	42855	11.4	1
0	42856	11.4	1
0	42972	11.45	3
0	42973	11.45	5
0	42974	11.45	3
0	42975	11.45	5
0	42976	11.45	8
0	42977	11.45	5
0	42978	11.45	3
0	42979	11.45	5
0	42980	11.45	3
0	42981	11.45	1
0	42982	11.45	1
0	43094	11.5	3
0	43095	11.5	5
0	43096	11.5	3
0	43097	11.5	5
0	43098	11.5	8
0	43099	11.5	5
0	43100	11.5	3
0	43101	11.5	5
0	43102	11.5	3
0	43103	11.5	1
0	43104	11.5	1
0	43107	11.5	3
0	43108	11.5	5
0	43109	11.5	3
0	43110	11.5	5
0	43111	11.5	8
0	43112	11.5	5
0	43113	11.5	3
0	43114	11.5	5
0	43115	11.5	3
0	43116	11.5	1
0	43117	11.5	1
0	43279	11.55	3
0	43280	11.55	5
0	43281	11.55	3
0	43282	11.55	5
0	43283	11.55	8
0	43284	11.55	5
0	43285	11.55	3
0	43286	11.55	5
0	43287	11.55	3
0	43288	11.55	1
0	43289	11.55	1
0	43497	11.6	3
0	43498	11.6	5
0	43499	11.6	3
0	43500	11.6	5
0	43501	11.6	8
0	43502	11.6	5
0	43503	11.6	3
0	43504	11.6	5
0	43505	11.6	3
0	43506	11.6	1
0	43507	11.6	1
0	43510	11.6	3
0	43511	11.6	5
0	43512	11.6	3
0	43513	11.6	5
0	43514	11.6	8
0	43515	11.6	5
0	43516	11.6	3
0	43517	11.6	5
0	43518	11.6	3
0	43519	11.6	1
0	43520	11.6	1
0	43732	11.65	3
0	43733	11.65	5
0	43734	11.65	3
0	43735	11.65	5
0	43736	11.65	8
0	43737	11.65	5
0	43738	11.65	3
0	43739	11.65	5
0	43740	11.65	3
0	43741	11.65	1
0	43742	11.65	1
0	43926	11.7	3
0	43927	11.7	5
0	43928	11.7	3
0	43929	11.7	5
0	43930	11.7	8
0	43931	11.7	5
0	43932	11.7	3
0	43933	11.7	5
0	43934	11.7	3
0	43935	11.7	1
0	43936	11.7	1
0	43939	11.7	3
0	43940	11.7	5
0	43941	11.7	3
0	43942	11.7	5
0	43943	11.7	8
0	43944	11.7	5
0	43945	11.7	3
0	43946	11.7	5
0	43947	11.7	3
0	43948	11.7	1
0	43949	11.7	1
0	44214	11.75	3
0	44215	11.75	5
0	44216	11.75	3
0	44217	11.75	5
0	44218	11.75	8
0	44219	11.75	5
0	44220	11.75	3
0	44221	11.75	5
0	44222	11.75	3
0	44223	11.75	1
0	44224	11.75	1
0	44441	11.8	3
0	44442	11.8	5
0	44443	11.8	3
0	44444	11.8	5
0	44445	11.8	8
0	44446	11.8	5
0	44447	11.8	3
0	44448	11.8	5
0	44449	11.8	3
0	44450	11.8	1
0	44451	11.8	1
0	44454	11.8	3
0	44455	11.8	5
0	44456	11.8	3
0	44457	11.8	5
0	44458	11.8	8
0	44459	11.8	5
0	44460	11.8	3
0	44461	11.8	5
0	44462	11.8	3
0	44463	11.8	1
0	44464	11.8	1
0	44603	11.85	3
0	44604	11.85	5
0	44605	11.85	3
0	44606	11.85	5
0	44607	11.85	8
0	44608	11.85	5
0	44609	11.85	3
0	44610	11.85	5
0	44611	11.85	3
0	44612	11.85	1
0	44613	11.85	1
0	44702	11.9	3
0	44703	11.9	5
0	44704	11.9	3
0	44705	11.9	5
0	44706	11.9	8
0	44707	11.9	5
0	44708	11.9	3
0	44709	11.9	5
0	44710	11.9	3
0	44711	11.9	1
0	44712	11.9	1
0	44715	11.9	3
0	44716	11.9	5
0	44717	11.9	3
0	44718	11.9	5
0	44719	11.9	8
0	44720	11.9	5
0	44721	11.9	3
0	44722	11.9	5
0	44723	11.9	3
0	44724	11.9	1
0	44725	11.9	1
0	44859	11.95	3
0	44860	11.95	5
0	44861	11.95	3
0	44862	11.95	5
0	44863	11.95	8
0	44864	11.95	5
0	44865	11.95	3
0	44866	11.95	5
0	44867	11.95	3
0	44868	11.95	1
0	44869	11.95	1
0	44992	12	3
0	44993	12	5
0	44994	12	3
0	44995	12	5
0	44996	12	8
0	44997	12	5
0	44998	12	3
0	44999	12	5
0	45000	12	3
0	45001	12	1
0	45002	12	1
0	45005	12	3
0	45006	12	5
0	45007	12	3
0	45008	12	5
0	45009	12	8
0	45010	12	5
0	45011	12	3
0	45012	12	5
0	45013	12	3
0	45014	12	1
0	45015	12	1
0	45166	12.05	3
0	45167	12.05	5
0	45168	12.05	3
0	45169	12.05	5
0	45170	12.05	8
0	45171	12.05	5
0	45172	12.05	3
0	45173	12.05	5
0	45174	12.05	3
0	45175	12.05	1
0	45176	12.05	1
0	45385	12.1	3
0	45386	12.1	5
0	45387	12.1	3
0	45388	12.1	5
0	45389	12.1	8
0	45390	12.1	5
0	45391	12.1	3
0	45392	12.1	5
0	45393	12.1	3
0	45394	12.1	1
0	45395	12.1	1
0	45398	12.1	3
0	45399	12.1	5
0	45400	12.1	3
0	45401	12.1	5
0	45402	12.1	8
0	45403	12.1	5
0	45404	12.1	3
0	45405	12.1	5
0	45406	12.1	3
0	45407	12.1	1
0	45408	12.1	1
0	45612	12.15	3
0	45613	12.15	5
0	45614	12.15	3
0	45615	12.15	5
0	45616	12.15	8
0	45617	12.15	5
0	45618	12.15	3
0	45619	12.15	5
0	45620	12.15	3
0	45621	12.15	1
0	45622	12.15	1
0	45865	12.2	3
0	45866	12.2	5
0	45867	12.2	3
0	45868	12.2	5
0	45869	12.2	8
0	45870	12.2	5
0	45871	12.2	3
0	45872	12.2	5
0	45873	12.2	3
0	45874	12.2	1
0	45875	12.2	1
0	45878	12.2	3
0	45879	12.2	5
0	45880	12.2	3
0	45881	12.2	5
0	45882	12.2	8
0	45883	12.2	5
0	45884	12.2	3
0	45885	12.2	5
0	45886	12.2	3
0	45887	12.2	1
0	45888	12.2	1
0	46172	12.25	3
0	46173	12.25	5
0	46174	12.25	3
0	46175	12.25	5
0	46176	12.25	8
0	46177	12.25	5
0	46178	12.25	3
0	46179	12.25	5
0	46180	12.25	3
0	46181	12.25	1
0	46182	12.25	1
0	46423	12.3	3
0	46424	12.3	5
0	46425	12.3	3
0	46426	12.3	5
0	46427	12.3	8
0	46428	12.3	5
0	46429	12.3	3
0	46430	12.3	5
0	46431	12.3	3
0	46432	12.3	1
0	46433	12.3	1
0	46436	12.3	3
0	46437	12.3	5
0	46438	12.3	3
0	46439	12.3	5
0	46440	12.3	8
0	46441	12.3	5
0	46442	12.3	3
0	46443	12.3	5
0	46444	12.3	3
0	46445	12.3	1
0	46446	12.3	1
0	46634	12.35	3
0	46635	12.35	5
0	46636	12.35	3
0	46637	12.35	5
0	46638	12.35	8
0	46639	12.35	5
0	46640	12.35	3
0	46641	12.35	5
0	46642	12.35	3
0	46643	12.35	1
0	46644	12.35	1
0	46788	12.4	3
0	46789	12.4	5
0	46790	12.4	3
0	46791	12.4	5
0	46792	12.4	8
0	46793	12.4	5
0	46794	12.4	3
0	46795	12.4	5
0	46796	12.4	3
0	46797	12.4	1
0	46798	12.4	1
0	46801	12.4	3
0	46802	12.4	5
0	46803	12.4	3
0	46804	12.4	5
0	46805	12.4	8
0	46806	12.4	5
0	46807	12.4	3
0	46808	12.4	5
0	46809	12.4	3
0	46810	12.4	1
0	46811	12.4	1
0	46930	12.45	3
0	46931	12.45	5
0	46932	12.45	3
0	46933	12.45	5
0	46934	12.45	8
0	46935	12.45	5
0	46936	12.45	3
0	46937	12.45	5
0	46938	12.45	3
0	46939	12.45	1
0	46940	12.45	1
0	47034	12.5	3
0	47035	12.5	5
0	47036	12.5	3
0	47037	12.5	5
0	47038	12.5	8
0	47039	12.5	5
0	47040	12.5	3
0	47041	12.5	5
0	47042	12.5	3
0	47043	12.5	1
0	47044	12.5	1
0	47047	12.5	3
0	47048	12.5	5
0	47049	12.5	3
0	47050	12.5	5
0	47051	12.5	8
0	47052	12.5	5
0	47053	12.5	3
0	47054	12.5	5
0	47055	12.5	3
0	47056	12.5	1
0	47057	12.5	1
0	47173	12.55	3
0	47174	12.55	5
0	47175	12.55	3
0	47176	12.55	5
0	47177	12.55	8
0	47178	12.55	5
0	47179	12.55	3
0	47180	12.55	5
0	47181	12.55	3
0	47182	12.55	1
0	47183	12.55	1
0	47295	12.6	3
0	47296	12.6	5
0	47297	12.6	3
0	47298	12.6	5
0	47299	12.6	8
0	47300	12.6	5
0	47301	12.6	3
0	47302	12.6	5
0	47303	12.6	3
0	47304	12.6	1
0	47305	12.6	1
0	47308	12.6	3
0	47309	12.6	5
0	47310	12.6	3
0	47311	12.6	5
0	47312	12.6	8
0	47313	12.6	5
0	47314	12.6	3
0	47315	12.6	5
0	47316	12.6	3
0	47317	12.6	1
0	47318	12.6	1
0	47553	12.65	3
0	47554	12.65	5
0	47555	12.65	3
0	47556	12.65	5
0	47557	12.65	8
0	47558	12.65	5
0	47559	12.65	3
0	47560	12.65	5
0	47561	12.65	3
0	47562	12.65	1
0	47563	12.65	1
0	47781	12.7	3
0	47782	12.7	5
0	47783	12.7	3
0	47784	12.7	5
0	47785	12.7	8
0	47786	12.7	5
0	47787	12.7	3
0	47788	12.7	5
0	47789	12.7	3
0	47790	12.7	1
0	47791	12.7	1
0	47794	12.7	3
0	47795	12.7	5
0	47796	12.7	3
0	47797	12.7	5
0	47798	12.7	8
0	47799	12.7	5
0	47800	12.7	3
0	47801	12.7	5
0	47802	12.7	3
0	47803	12.7	1
0	47804	12.7	1
0	48111	12.75	3
0	48112	12.75	5
0	48113	12.75	3
0	48114	12.75	5
0	48115	12.75	8
0	48116	12.75	5
0	48117	12.75	3
0	48118	12.75	5
0	48119	12.75	3
0	48120	12.75	1
0	48121	12.75	1
0	48325	12.8	3
0	48326	12.8	5
0	48327	12.8	3
0	48328	12.8	5
0	48329	12.8	8
0	48330	12.8	5
0	48331	12.8	3
0	48332	12.8	5
0	48333	12.8	3
0	48334	12.8	1
0	48335	12.8	1
0	48338	12.8	3
0	48339	12.8	5
0	48340	12.8	3
0	48341	12.8	5
0	48342	12.8	8
0	48343	12.8	5
0	48344	12.8	3
0	48345	12.8	5
0	48346	12.8	3
0	48347	12.8	1
0	48348	12.8	1
0	48562	12.85	3
0	48563	12.85	5
0	48564	12.85	3
0	48565	12.85	5
0	48566	12.85	8
0	48567	12.85	5
0	48568	12.85	3
0	48569	12.85	5
0	48570	12.85	3
0	48571	12.85	1
0	48572	12.85	1
0	48743	12.9	3
0	48744	12.9	5
0	48745	12.9	3
0	48746	12.9	5
0	48747	12.9	8
0	48748	12.9	5
0	48749	12.9	3
0	48750	12.9	5
0	48751	12.9	3
0	48752	12.9	1
0	48753	12.9	1
0	48756	12.9	3
0	48757	12.9	5
0	48758	12.9	3
0	48759	12.9	5
0	48760	12.9	8
0	48761	12.9	5
0	48762	12.9	3
0	48763	12.9	5
0	48764	12.9	3
0	48765	12.9	1
0	48766	12.9	1
0	48900	12.95	3
0	48901	12.95	5
0	48902	12.95	3
0	48903	12.95	5
0	48904	12.95	8
0	48905	12.95	5
0	48906	12.95	3
0	48907	12.95	5
0	48908	12.95	3
0	48909	12.95	1
0	48910	12.95	1
0	48999	13	3
0	49000	13	5
0	49001	13	3
0	49002	13	5
0	49003	13	8
0	49004	13	5
0	49005	13	3
0	49006	13	5
0	49007	13	3
0	49008	13	1
0	49009	13	1
0	49012	13	3
0	49013	13	5
0	49014	13	3
0	49015	13	5
0	49016	13	8
0	49017	13	5
0	49018	13	3
0	49019	13	5
0	49020	13	3
0	49021	13	1
0	49022	13	1
0	49133	13.05	3
0	49134	13.05	5
0	49135	13.05	3
0	49136	13.05	5
0	49137	13.05	8
0	49138	13.05	5
0	49139	13.05	3
0	49140	13.05	5
0	49141	13.05	3
0	49142	13.05	1
0	49143	13.05	1
0	49243	13.1	3
0	49244	13.1	5
0	49245	13.1	3
0	49246	13.1	5
0	49247	13.1	8
0	49248	13.1	5
0	49249	13.1	3
0	49250	13.1	5
0	49251	13.1	3
0	49252	13.1	1
0	49253	13.1	1
0	49256	13.1	3
0	49257	13.1	5
0	49258	13.1	3
0	49259	13.1	5
0	49260	13.1	8
0	49261	13.1	5
0	49262	13.1	3
0	49263	13.1	5
0	49264	13.1	3
0	49265	13.1	1
0	49266	13.1	1
0	49395	13.15	3
0	49396	13.15	5
0	49397	13.15	3
0	49398	13.15	5
0	49399	13.15	8
0	49400	13.15	5
0	49401	13.15	3
0	49402	13.15	5
0	49403	13.15	3
0	49404	13.15	1
0	49405	13.15	1
0	49606	13.2	3
0	49607	13.2	5
0	49608	13.2	3
0	49609	13.2	5
0	49610	13.2	8
0	49611	13.2	5
0	49612	13.2	3
0	49613	13.2	5
0	49614	13.2	3
0	49615	13.2	1
0	49616	13.2	1
0	49619	13.2	3
0	49620	13.2	5
0	49621	13.2	3
0	49622	13.2	5
0	49623	13.2	8
0	49624	13.2	5
0	49625	13.2	3
0	49626	13.2	5
0	49627	13.2	3
0	49628	13.2	1
0	49629	13.2	1
0	49824	13.25	3
0	49825	13.25	5
0	49826	13.25	3
0	49827	13.25	5
0	49828	13.25	8
0	49829	13.25	5
0	49830	13.25	3
0	49831	13.25	5
0	49832	13.25	3
0	49833	13.25	1
0	49834	13.25	1
0	50049	13.3	3
0	50050	13.3	5
0	50051	13.3	3
0	50052	13.3	5
0	50053	13.3	8
0	50054	13.3	5
0	50055	13.3	3
0	50056	13.3	5
0	50057	13.3	3
0	50058	13.3	1
0	50059	13.3	1
0	50062	13.3	3
0	50063	13.3	5
0	50064	13.3	3
0	50065	13.3	5
0	50066	13.3	8
0	50067	13.3	5
0	50068	13.3	3
0	50069	13.3	5
0	50070	13.3	3
0	50071	13.3	1
0	50072	13.3	1
0	50314	13.35	3
0	50315	13.35	5
0	50316	13.35	3
0	50317	13.35	5
0	50318	13.35	8
0	50319	13.35	5
0	50320	13.35	3
0	50321	13.35	5
0	50322	13.35	3
0	50323	13.35	1
0	50324	13.35	1
0	50550	13.4	3
0	50551	13.4	5
0	50552	13.4	3
0	50553	13.4	5
0	50554	13.4	8
0	50555	13.4	5
0	50556	13.4	3
0	50557	13.4	5
0	50558	13.4	3
0	50559	13.4	1
0	50560	13.4	1
0	50563	13.4	3
0	50564	13.4	5
0	50565	13.4	3
0	50566	13.4	5
0	50567	13.4	8
0	50568	13.4	5
0	50569	13.4	3
0	50570	13.4	5
0	50571	13.4	3
0	50572	13.4	1
0	50573	13.4	1
0	50758	13.45	3
0	50759	13.45	5
0	50760	13.45	3
0	50761	13.45	5
0	50762	13.45	8
0	50763	13.45	5
0	50764	13.45	3
0	50765	13.45	5
0	50766	13.45	3
0	50767	13.45	1
0	50768	13.45	1
0	50857	13.5	3
0	50858	13.5	5
0	50859	13.5	3
0	50860	13.5	5
0	50861	13.5	8
0	50862	13.5	5
0	50863	13.5	3
0	50864	13.5	5
0	50865	13.5	3
0	50866	13.5	1
0	50867	13.5	1
0	50870	13.5	3
0	50871	13.5	5
0	50872	13.5	3
0	50873	13.5	5
0	50874	13.5	8
0	50875	13.5	5
0	50876	13.5	3
0	50877	13.5	5
0	50878	13.5	3
0	50879	13.5	1
0	50880	13.5	1
0	50991	13.55	3
0	50992	13.55	5
0	50993	13.55	3
0	50994	13.55	5
0	50995	13.55	8
0	50996	13.55	5
0	50997	13.55	3
0	50998	13.55	5
0	50999	13.55	3
0	51000	13.55	1
0	51001	13.55	1
0	51090	13.6	3
0	51091	13.6	5
0	51092	13.6	3
0	51093	13.6	5
0	51094	13.6	8
0	51095	13.6	5
0	51096	13.6	3
0	51097	13.6	5
0	51098	13.6	3
0	51099	13.6	1
0	51100	13.6	1
0	51103	13.6	3
0	51104	13.6	5
0	51105	13.6	3
0	51106	13.6	5
0	51107	13.6	8
0	51108	13.6	5
0	51109	13.6	3
0	51110	13.6	5
0	51111	13.6	3
0	51112	13.6	1
0	51113	13.6	1
0	51247	13.65	3
0	51248	13.65	5
0	51249	13.65	3
0	51250	13.65	5
0	51251	13.65	8
0	51252	13.65	5
0	51253	13.65	3
0	51254	13.65	5
0	51255	13.65	3
0	51256	13.65	1
0	51257	13.65	1
0	51369	13.7	3
0	51370	13.7	5
0	51371	13.7	3
0	51372	13.7	5
0	51373	13.7	8
0	51374	13.7	5
0	51375	13.7	3
0	51376	13.7	5
0	51377	13.7	3
0	51378	13.7	1
0	51379	13.7	1
0	51382	13.7	3
0	51383	13.7	5
0	51384	13.7	3
0	51385	13.7	5
0	51386	13.7	8
0	51387	13.7	5
0	51388	13.7	3
0	51389	13.7	5
0	51390	13.7	3
0	51391	13.7	1
0	51392	13.7	1
0	51620	13.75	3
0	51621	13.75	5
0	51622	13.75	3
0	51623	13.75	5
0	51624	13.75	8
0	51625	13.75	5
0	51626	13.75	3
0	51627	13.75	5
0	51628	13.75	3
0	51629	13.75	1
0	51630	13.75	1
0	51882	13.8	3
0	51883	13.8	5
0	51884	13.8	3
0	51885	13.8	5
0	51886	13.8	8
0	51887	13.8	5
0	51888	13.8	3
0	51889	13.8	5
0	51890	13.8	3
0	51891	13.8	1
0	51892	13.8	1
0	51895	13.8	3
0	51896	13.8	5
0	51897	13.8	3
0	51898	13.8	5
0	51899	13.8	8
0	51900	13.8	5
0	51901	13.8	3
0	51902	13.8	5
0	51903	13.8	3
0	51904	13.8	1
0	51905	13.8	1
0	52172	13.85	3
0	52173	13.85	5
0	52174	13.85	3
0	52175	13.85	5
0	52176	13.85	8
0	52177	13.85	5
0	52178	13.85	3
0	52179	13.85	5
0	52180	13.85	3
0	52181	13.85	1
0	52182	13.85	1
0	52350	13.9	3
0	52351	13.9	5
0	52352	13.9	3
0	52353	13.9	5
0	52354	13.9	8
0	52355	13.9	5
0	52356	13.9	3
0	52357	13.9	5
0	52358	13.9	3
0	52359	13.9	1
0	52360	13.9	1
0	52363	13.9	3
0	52364	13.9	5
0	52365	13.9	3
0	52366	13.9	5
0	52367	13.9	8
0	52368	13.9	5
0	52369	13.9	3
0	52370	13.9	5
0	52371	13.9	3
0	52372	13.9	1
0	52373	13.9	1
0	52591	13.95	3
0	52592	13.95	5
0	52593	13.95	3
0	52594	13.95	5
0	52595	13.95	8
0	52596	13.95	5
0	52597	13.95	3
0	52598	13.95	5
0	52599	13.95	3
0	52600	13.95	1
0	52601	13.95	1
0	52799	14	3
0	52800	14	5
0	52801	14	3
0	52802	14	5
0	52803	14	8
0	52804	14	5
0	52805	14	3
0	52806	14	5
0	52807	14	3
0	52808	14	1
0	52809	14	1
0	52812	14	3
0	52813	14	5
0	52814	14	3
0	52815	14	5
0	52816	14	8
0	52817	14	5
0	52818	14	3
0	52819	14	5
0	52820	14	3
0	52821	14	1
0	52822	14	1
0	52933	14.05	3
0	52934	14.05	5
0	52935	14.05	3
0	52936	14.05	5
0	52937	14.05	8
0	52938	14.05	5
0	52939	14.05	3
0	52940	14.05	5
0	52941	14.05	3
0	52942	14.05	1
0	52943	14.05	1
0	53066	14.1	3
0	53067	14.1	5
0	53068	14.1	3
0	53069	14.1	5
0	53070	14.1	8
0	53071	14.1	5
0	53072	14.1	3
0	53073	14.1	5
0	53074	14.1	3
0	53075	14.1	1
0	53076	14.1	1
0	53079	14.1	3
0	53080	14.1	5
0	53081	14.1	3
0	53082	14.1	5
0	53083	14.1	8
0	53084	14.1	5
0	53085	14.1	3
0	53086	14.1	5
0	53087	14.1	3
0	53088	14.1	1
0	53089	14.1	1
0	53236	14.15	3
0	53237	14.15	5
0	53238	14.15	3
0	53239	14.15	5
0	53240	14.15	8
0	53241	14.15	5
0	53242	14.15	3
0	53243	14.15	5
0	53244	14.15	3
0	53245	14.15	1
0	53246	14.15	1
0	53358	14.2	3
0	53359	14.2	5
0	53360	14.2	3
0	53361	14.2	5
0	53362	14.2	8
0	53363	14.2	5
0	53364	14.2	3
0	53365	14.2	5
0	53366	14.2	3
0	53367	14.2	1
0	53368	14.2	1
0	53371	14.2	3
0	53372	14.2	5
0	53373	14.2	3
0	53374	14.2	5
0	53375	14.2	8
0	53376	14.2	5
0	53377	14.2	3
0	53378	14.2	5
0	53379	14.2	3
0	53380	14.2	1
0	53381	14.2	1
0	53515	14.25	3
0	53516	14.25	5
0	53517	14.25	3
0	53518	14.25	5
0	53519	14.25	8
0	53520	14.25	5
0	53521	14.25	3
0	53522	14.25	5
0	53523	14.25	3
0	53524	14.25	1
0	53525	14.25	1
0	53686	14.3	3
0	53687	14.3	5
0	53688	14.3	3
0	53689	14.3	5
0	53690	14.3	8
0	53691	14.3	5
0	53692	14.3	3
0	53693	14.3	5
0	53694	14.3	3
0	53695	14.3	1
0	53696	14.3	1
0	53699	14.3	3
0	53700	14.3	5
0	53701	14.3	3
0	53702	14.3	5
0	53703	14.3	8
0	53704	14.3	5
0	53705	14.3	3
0	53706	14.3	5
0	53707	14.3	3
0	53708	14.3	1
0	53709	14.3	1
0	53986	14.35	3
0	53987	14.35	5
0	53988	14.35	3
0	53989	14.35	5
0	53990	14.35	8
0	53991	14.35	5
0	53992	14.35	3
0	53993	14.35	5
0	53994	14.35	3
0	53995	14.35	1
0	53996	14.35	1
0	54224	14.4	3
0	54225	14.4	5
0	54226	14.4	3
0	54227	14.4	5
0	54228	14.4	8
0	54229	14.4	5
0	54230	14.4	3
0	54231	14.4	5
0	54232	14.4	3
0	54233	14.4	1
0	54234	14.4	1
0	54237	14.4	3
0	54238	14.4	5
0	54239	14.4	3
0	54240	14.4	5
0	54241	14.4	8
0	54242	14.4	5
0	54243	14.4	3
0	54244	14.4	5
0	54245	14.4	3
0	54246	14.4	1
0	54247	14.4	1
0	54406	14.45	3
0	54407	14.45	5
0	54408	14.45	3
0	54409	14.45	5
0	54410	14.45	8
0	54411	14.45	5
0	54412	14.45	3
0	54413	14.45	5
0	54414	14.45	3
0	54415	14.45	1
0	54416	14.45	1
0	54673	14.5	3
0	54674	14.5	5
0	54675	14.5	3
0	54676	14.5	5
0	54677	14.5	8
0	54678	14.5	5
0	54679	14.5	3
0	54680	14.5	5
0	54681	14.5	3
0	54682	14.5	1
0	54683	14.5	1
0	54686	14.5	3
0	54687	14.5	5
0	54688	14.5	3
0	54689	14.5	5
0	54690	14.5	8
0	54691	14.5	5
0	54692	14.5	3
0	54693	14.5	5
0	54694	14.5	3
0	54695	14.5	1
0	54696	14.5	1
0	54971	14.55	3
0	54972	14.55	5
0	54973	14.55	3
0	54974	14.55	5
0	54975	14.55	8
0	54976	14.55	5
0	54977	14.55	3
0	54978	14.55	5
0	54979	14.55	3
0	54980	14.55	1
0	54981	14.55	1
0	55070	14.6	3
0	55071	14.6	5
0	55072	14.6	3
0	55073	14.6	5
0	55074	14.6	8
0	55075	14.6	5
0	55076	14.6	3
0	55077	14.6	5
0	55078	14.6	3
0	55079	14.6	1
0	55080	14.6	1
0	55083	14.6	3
0	55084	14.6	5
0	55085	14.6	3
0	55086	14.6	5
0	55087	14.6	8
0	55088	14.6	5
0	55089	14.6	3
0	55090	14.6	5
0	55091	14.6	3
0	55092	14.6	1
0	55093	14.6	1
0	55227	14.65	3
0	55228	14.65	5
0	55229	14.65	3
0	55230	14.65	5
0	55231	14.65	8
0	55232	14.65	5
0	55233	14.65	3
0	55234	14.65	5
0	55235	14.65	3
0	55236	14.65	1
0	55237	14.65	1
0	55354	14.7	3
0	55355	14.7	5
0	55356	14.7	3
0	55357	14.7	5
0	55358	14.7	8
0	55359	14.7	5
0	55360	14.7	3
0	55361	14.7	5
0	55362	14.7	3
0	55363	14.7	1
0	55364	14.7	1
0	55367	14.7	3
0	55368	14.7	5
0	55369	14.7	3
0	55370	14.7	5
0	55371	14.7	8
0	55372	14.7	5
0	55373	14.7	3
0	55374	14.7	5
0	55375	14.7	3
0	55376	14.7	1
0	55377	14.7	1
0	55511	14.75	3
0	55512	14.75	5
0	55513	14.75	3
0	55514	14.75	5
0	55515	14.75	8
0	55516	14.75	5
0	55517	14.75	3
0	55518	14.75	5
0	55519	14.75	3
0	55520	14.75	1
0	55521	14.75	1
0	55656	14.8	3
0	55657	14.8	5
0	55658	14.8	3
0	55659	14.8	5
0	55660	14.8	8
0	55661	14.8	5
0	55662	14.8	3
0	55663	14.8	5
0	55664	14.8	3
0	55665	14.8	1
0	55666	14.8	1
0	55669	14.8	3
0	55670	14.8	5
0	55671	14.8	3
0	55672	14.8	5
0	55673	14.8	8
0	55674	14.8	5
0	55675	14.8	3
0	55676	14.8	5
0	55677	14.8	3
0	55678	14.8	1
0	55679	14.8	1
0	55836	14.85	3
0	55837	14.85	5
0	55838	14.85	3
0	55839	14.85	5
0	55840	14.85	8
0	55841	14.85	5
0	55842	14.85	3
0	55843	14.85	5
0	55844	14.85	3
0	55845	14.85	1
0	55846	14.85	1
0	56055	14.9	3
0	56056	14.9	5
0	56057	14.9	3
0	56058	14.9	5
0	56059	14.9	8
0	56060	14.9	5
0	56061	14.9	3
0	56062	14.9	5
0	56063	14.9	3
0	56064	14.9	1
0	56065	14.9	1
0	56068	14.9	3
0	56069	14.9	5
0	56070	14.9	3
0	56071	14.9	5
0	56072	14.9	8
0	56073	14.9	5
0	56074	14.9	3
0	56075	14.9	5
0	56076	14.9	3
0	56077	14.9	1
0	56078	14.9	1
0	56298	14.95	3
0	56299	14.95	5
0	56300	14.95	3
0	56301	14.95	5
0	56302	14.95	8
0	56303	14.95	5
0	56304	14.95	3
0	56305	14.95	5
0	56306	14.95	3
0	56307	14.95	1
0	56308	14.95	1
0	56464	15	3
0	56465	15	5
0	56466	15	3
0	56467	15	5
0	56468	15	8
0	56469	15	5
0	56470	15	3
0	56471	15	5
0	56472	15	3
0	56473	15	1
0	56474	15	1
0	56477	15	3
0	56478	15	5
0	56479	15	3
0	56480	15	5
0	56481	15	8
0	56482	15	5
0	56483	15	3
0	56484	15	5
0	56485	15	3
0	56486	15	1
0	56487	15	1
0	56732	15.05	3
0	56733	15.05	5
0	56734	15.05	3
0	56735	15.05	5
0	56736	15.05	8
0	56737	15.05	5
0	56738	15.05	3
0	56739	15.05	5
0	56740	15.05	3
0	56741	15.05	1
0	56742	15.05	1
0	56934	15.1	3
0	56935	15.1	5
0	56936	15.1	3
0	56937	15.1	5
0	56938	15.1	8
0	56939	15.1	5
0	56940	15.1	3
0	56941	15.1	5
0	56942	15.1	3
0	56943	15.1	1
0	56944	15.1	1
0	56947	15.1	3
0	56948	15.1	5
0	56949	15.1	3
0	56950	15.1	5
0	56951	15.1	8
0	56952	15.1	5
0	56953	15.1	3
0	56954	15.1	5
0	56955	15.1	3
0	56956	15.1	1
0	56957	15.1	1
0	57081	15.15	3
0	57082	15.15	5
0	57083	15.15	3
0	57084	15.15	5
0	57085	15.15	8
0	57086	15.15	5
0	57087	15.15	3
0	57088	15.15	5
0	57089	15.15	3
0	57090	15.15	1
0	57091	15.15	1
0	57203	15.2	3
0	57204	15.2	5
0	57205	15.2	3
0	57206	15.2	5
0	57207	15.2	8
0	57208	15.2	5
0	57209	15.2	3
0	57210	15.2	5
0	57211	15.2	3
0	57212	15.2	1
0	57213	15.2	1
0	57216	15.2	3
0	57217	15.2	5
0	57218	15.2	3
0	57219	15.2	5
0	57220	15.2	8
0	57221	15.2	5
0	57222	15.2	3
0	57223	15.2	5
0	57224	15.2	3
0	57225	15.2	1
0	57226	15.2	1
0	57383	15.25	3
0	57384	15.25	5
0	57385	15.25	3
0	57386	15.25	5
0	57387	15.25	8
0	57388	15.25	5
0	57389	15.25	3
0	57390	15.25	5
0	57391	15.25	3
0	57392	15.25	1
0	57393	15.25	1
0	57539	15.3	3
0	57540	15.3	5
0	57541	15.3	3
0	57542	15.3	5
0	57543	15.3	8
0	57544	15.3	5
0	57545	15.3	3
0	57546	15.3	5
0	57547	15.3	3
0	57548	15.3	1
0	57549	15.3	1
0	57552	15.3	3
0	57553	15.3	5
0	57554	15.3	3
0	57555	15.3	5
0	57556	15.3	8
0	57557	15.3	5
0	57558	15.3	3
0	57559	15.3	5
0	57560	15.3	3
0	57561	15.3	1
0	57562	15.3	1
0	57759	15.35	3
0	57760	15.35	5
0	57761	15.35	3
0	57762	15.35	5
0	57763	15.35	8
0	57764	15.35	5
0	57765	15.35	3
0	57766	15.35	5
0	57767	15.35	3
0	57768	15.35	1
0	57769	15.35	1
0	57886	15.4	3
0	57887	15.4	5
0	57888	15.4	3
0	57889	15.4	5
0	57890	15.4	8
0	57891	15.4	5
0	57892	15.4	3
0	57893	15.4	5
0	57894	15.4	3
0	57895	15.4	1
0	57896	15.4	1
0	57899	15.4	3
0	57900	15.4	5
0	57901	15.4	3
0	57902	15.4	5
0	57903	15.4	8
0	57904	15.4	5
0	57905	15.4	3
0	57906	15.4	5
0	57907	15.4	3
0	57908	15.4	1
0	57909	15.4	1
0	58088	15.45	3
0	58089	15.45	5
0	58090	15.45	3
0	58091	15.45	5
0	58092	15.45	8
0	58093	15.45	5
0	58094	15.45	3
0	58095	15.45	5
0	58096	15.45	3
0	58097	15.45	1
0	58098	15.45	1
0	58330	15.5	3
0	58331	15.5	5
0	58332	15.5	3
0	58333	15.5	5
0	58334	15.5	8
0	58335	15.5	5
0	58336	15.5	3
0	58337	15.5	5
0	58338	15.5	3
0	58339	15.5	1
0	58340	15.5	1
0	58343	15.5	3
0	58344	15.5	5
0	58345	15.5	3
0	58346	15.5	5
0	58347	15.5	8
0	58348	15.5	5
0	58349	15.5	3
0	58350	15.5	5
0	58351	15.5	3
0	58352	15.5	1
0	58353	15.5	1
0	58495	15.55	3
0	58496	15.55	5
0	58497	15.55	3
0	58498	15.55	5
0	58499	15.55	8
0	58500	15.55	5
0	58501	15.55	3
0	58502	15.55	5
0	58503	15.55	3
0	58504	15.55	1
0	58505	15.55	1
0	58698	15.6	3
0	58699	15.6	5
0	58700	15.6	3
0	58701	15.6	5
0	58702	15.6	8
0	58703	15.6	5
0	58704	15.6	3
0	58705	15.6	5
0	58706	15.6	3
0	58707	15.6	1
0	58708	15.6	1
0	58711	15.6	3
0	58712	15.6	5
0	58713	15.6	3
0	58714	15.6	5
0	58715	15.6	8
0	58716	15.6	5
0	58717	15.6	3
0	58718	15.6	5
0	58719	15.6	3
0	58720	15.6	1
0	58721	15.6	1
0	58926	15.65	3
0	58927	15.65	5
0	58928	15.65	3
0	58929	15.65	5
0	58930	15.65	8
0	58931	15.65	5
0	58932	15.65	3
0	58933	15.65	5
0	58934	15.65	3
0	58935	15.65	1
0	58936	15.65	1
0	59025	15.7	3
0	59026	15.7	5
0	59027	15.7	3
0	59028	15.7	5
0	59029	15.7	8
0	59030	15.7	5
0	59031	15.7	3
0	59032	15.7	5
0	59033	15.7	3
0	59034	15.7	1
0	59035	15.7	1
0	59038	15.7	3
0	59039	15.7	5
0	59040	15.7	3
0	59041	15.7	5
0	59042	15.7	8
0	59043	15.7	5
0	59044	15.7	3
0	59045	15.7	5
0	59046	15.7	3
0	59047	15.7	1
0	59048	15.7	1
0	59199	15.75	3
0	59200	15.75	5
0	59201	15.75	3
0	59202	15.75	5
0	59203	15.75	8
0	59204	15.75	5
0	59205	15.75	3
0	59206	15.75	5
0	59207	15.75	3
0	59208	15.75	1
0	59209	15.75	1
0	59321	15.8	3
0	59322	15.8	5
0	59323	15.8	3
0	59324	15.8	5
0	59325	15.8	8
0	59326	15.8	5
0	59327	15.8	3
0	59328	15.8	5
0	59329	15.8	3
0	59330	15.8	1
0	59331	15.8	1
0	59334	15.8	3
0	59335	15.8	5
0	59336	15.8	3
0	59337	15.8	5
0	59338	15.8	8
0	59339	15.8	5
0	59340	15.8	3
0	59341	15.8	5
0	59342	15.8	3
0	59343	15.8	1
0	59344	15.8	1
0	59455	15.85	3
0	59456	15.85	5
0	59457	15.85	3
0	59458	15.85	5
0	59459	15.85	8
0	59460	15.85	5
0	59461	15.85	3
0	59462	15.85	5
0	59463	15.85	3
0	59464	15.85	1
0	59465	15.85	1
0	59587	15.9	3
0	59588	15.9	5
0	59589	15.9	3
0	59590	15.9	5
0	59591	15.9	8
0	59592	15.9	5
0	59593	15.9	3
0	59594	15.9	5
0	59595	15.9	3
0	59596	15.9	1
0	59597	15.9	1
0	59600	15.9	3
0	59601	15.9	5
0	59602	15.9	3
0	59603	15.9	5
0	59604	15.9	8
0	59605	15.9	5
0	59606	15.9	3
0	59607	15.9	5
0	59608	15.9	3
0	59609	15.9	1
0	59610	15.9	1
0	59805	15.95	3
0	59806	15.95	5
0	59807	15.95	3
0	59808	15.95	5
0	59809	15.95	8
0	59810	15.95	5
0	59811	15.95	3
0	59812	15.95	5
0	59813	15.95	3
0	59814	15.95	1
0	59815	15.95	1
0	59996	16	3
0	59997	16	5
0	59998	16	3
0	59999	16	5
0	60000	16	8
0	60001	16	5
0	60002	16	3
0	60003	16	5
0	60004	16	3
0	60005	16	1
0	60006	16	1
0	60009	16	3
0	60010	16	5
0	60011	16	3
0	60012	16	5
0	60013	16	8
0	60014	16	5
0	60015	16	3
0	60016	16	5
0	60017	16	3
0	60018	16	1
0	60019	16	1
0	60232	16.05	3
0	60233	16.05	5
0	60234	16.05	3
0	60235	16.05	5
0	60236	16.05	8
0	60237	16.05	5
0	60238	16.05	3
0	60239	16.05	5
0	60240	16.05	3
0	60241	16.05	1
0	60242	16.05	1
0	60528	16.1	3
0	60529	16.1	5
0	60530	16.1	3
0	60531	16.1	5
0	60532	16.1	8
0	60533	16.1	5
0	60534	16.1	3
0	60535	16.1	5
0	60536	16.1	3
0	60537	16.1	1
0	60538	16.1	1
0	60541	16.1	3
0	60542	16.1	5
0	60543	16.1	3
0	60544	16.1	5
0	60545	16.1	8
0	60546	16.1	5
0	60547	16.1	3
0	60548	16.1	5
0	60549	16.1	3
0	60550	16.1	1
0	60551	16.1	1
0	60745	16.15	3
0	60746	16.15	5
0	60747	16.15	3
0	60748	16.15	5
0	60749	16.15	8
0	60750	16.15	5
0	60751	16.15	3
0	60752	16.15	5
0	60753	16.15	3
0	60754	16.15	1
0	60755	16.15	1
[...]
3	359113	86.726506728067	391557
3	359152	86.740346728067	391698
3	359269	86.754186728067	391839
3	360697	87.183626728067	391980
3	361222	87.293584192201	392121
3	361372	87.307424192201	392262
3	361390	87.321264192201	392403
3	361403	87.335104192201	392544
3	361421	87.348944192201	392685
3	361544	87.362784192201	392826
3	361610	87.376624192201	392967
3	361628	87.390464192201	393108
3	361784	87.404304192201	393249
3	361826	87.418144192201	393390
3	361859	87.431984192201	393531
3	361886	87.445824192201	393672
3	362011	87.459664192201	393813
3	362050	87.473504192201	393954
3	362089	87.487344192201	394095
3	362245	87.501184192201	394236
3	362302	87.528864192201	394377
3	362320	87.542704192201	394518
3	362443	87.556544192201	394659
3	362503	87.570384192201	394800
3	362533	87.584224192201	394941
3	362551	87.598064192201	395082
3	362713	87.611904192201	395223
3	362814	87.625744192201	395364
3	362865	87.633626728067	395505
3	362892	87.639584192201	395646
3	362910	87.647466728067	395787
3	363029	87.653424192201	395928
3	363039	87.661306728067	396069
3	363069	87.667264192201	396210
3	363095	87.675146728067	396351
3	363113	87.681104192201	396492
3	363131	87.694944192201	396633
3	363285	87.708784192201	396774
3	363324	87.722624192201	396915
3	363342	87.736464192201	397056
3	363462	87.750304192201	397197
3	363472	87.764144192201	397338
3	363561	87.777984192201	397479
3	363600	87.791824192201	397620
3	363754	87.805664192201	397761
3	363772	87.819504192201	397902
3	363790	87.833344192201	398043
3	363808	87.847184192201	398184
3	363927	87.861024192201	398325
3	363945	87.874864192201	398466
3	363963	87.888704192201	398607
3	364112	87.902544192201	398748
3	364175	87.930224192201	398889
3	364193	87.944064192201	399030
3	364314	87.957904192201	399171
3	364368	87.971744192201	399312
3	364386	87.985584192201	399453
3	364404	87.999424192201	399594
3	364562	88.013264192201	399735
3	364601	88.027104192201	399876
3	364635	88.040944192201	400017
3	364756	88.054784192201	400158
3	364798	88.068624192201	400299
3	364904	88.082464192201	400440
3	364914	88.083626728067	400581
3	364940	88.096304192201	400722
3	364950	88.097466728067	400863
3	365135	88.110144192201	401004
3	365145	88.111306728067	401145
3	365229	88.123984192201	401286
3	365239	88.125146728067	401427
3	365265	88.133626728067	401568
3	365275	88.13396899642	401709
3	365291	88.138986728067	401850
3	365309	88.147466728067	401991
3	365319	88.14780899642	402132
3	365448	88.151664192201	402273
3	365458	88.152826728067	402414
3	365468	88.161306728067	402555
3	365517	88.165504192201	402696
3	365527	88.166666728067	402837
3	365580	88.17548899642	402978
3	365598	88.179344192201	403119
3	365659	88.18932899642	403260
3	365685	88.193184192201	403401
3	365695	88.193584192201	403542
3	365713	88.194346728067	403683
3	365889	88.207024192201	403824
3	365902	88.208186728067	403965
3	365953	88.220864192201	404106
3	365966	88.222026728067	404247
3	365992	88.233626728067	404388
3	366003	88.234704192201	404529
3	366013	88.235866728067	404670
3	366047	88.247466728067	404811
3	366058	88.248544192201	404952
3	366068	88.249706728067	405093
3	366205	88.262384192201	405234
3	366215	88.263546728067	405375
3	366267	88.276224192201	405516
3	366277	88.277386728067	405657
3	366303	88.283626728067	405798
3	366321	88.290064192201	405939
3	366331	88.291226728067	406080
3	366499	88.303904192201	406221
3	366509	88.305066728067	406362
3	366558	88.317744192201	406503
3	366568	88.318906728067	406644
3	366619	88.331584192201	406785
3	366695	88.345424192201	406926
3	366705	88.346586728067	407067
3	366832	88.351022591762	407208
3	366850	88.359264192201	407349
3	366860	88.360426728067	407490
3	366889	88.364862591762	407631
3	366925	88.373104192201	407772
3	366935	88.374266728067	407913
3	366959	88.386944192201	408054
3	366969	88.388106728067	408195
3	367130	88.400784192201	408336
3	367140	88.401946728067	408477
3	367166	88.406382591762	408618
3	367179	88.414624192201	408759
3	367189	88.415786728067	408900
3	367215	88.420222591762	409041
3	367233	88.428464192201	409182
3	367243	88.429626728067	409323
3	367272	88.443466728067	409464
3	367397	88.456144192201	409605
3	367407	88.457306728067	409746
3	367472	88.469984192201	409887
3	367482	88.471146728067	410028
3	367508	88.483824192201	410169
3	367518	88.484986728067	410310
3	367544	88.497664192201	410451
3	367554	88.498826728067	410592
3	367716	88.511504192201	410733
3	367726	88.512666728067	410874
3	367776	88.525344192201	411015
3	367786	88.526506728067	411156
3	367812	88.539184192201	411297
3	367934	88.553024192201	411438
3	367944	88.554186728067	411579
3	368274	88.643584192201	411720
3	368398	88.657424192201	411861
3	368452	88.671264192201	412002
3	368473	88.685104192201	412143
3	368494	88.698944192201	412284
3	368740	88.743584192201	412425
3	368859	88.757424192201	412566
3	369906	89.083626728067	412707
3	369924	89.097466728067	412848
3	370101	89.111306728067	412989
3	370183	89.125146728067	413130
3	370204	89.138986728067	413271
3	370222	89.147466728067	413412
3	370347	89.152826728067	413553
3	370357	89.161306728067	413694
3	370439	89.175146728067	413835
3	370457	89.183626728067	413976
3	370475	89.188986728067	414117
3	370631	89.202826728067	414258
3	370688	89.230506728067	414399
3	370706	89.244346728067	414540
3	370833	89.258186728067	414681
3	370882	89.272026728067	414822
3	371164	89.333626728067	414963
3	371563	89.448272534095	415104
3	371684	89.462112534095	415245
3	371723	89.475952534095	415386
3	372298	89.633626728067	415527
3	372915	89.78396899642	415668
3	372942	89.79780899642	415809
3	373100	89.81164899642	415950
3	373156	89.82548899642	416091
3	373180	89.843584192201	416232
3	373303	89.85316899642	416373
3	373340	89.88084899642	416514
3	373358	89.89468899642	416655
3	373510	89.90852899642	416796
3	373544	89.92236899642	416937
3	373562	89.93620899642	417078
3	373685	89.95004899642	417219
3	373695	89.96388899642	417360
3	373781	89.99156899642	417501
3	373931	90.00540899642	417642
3	373949	90.01924899642	417783
3	373965	90.04692899642	417924
3	374084	90.06076899642	418065
3	374145	90.083626728067	418206
3	374163	90.08844899642	418347
3	374176	90.097466728067	418488
3	374353	90.10228899642	418629
3	374371	90.111306728067	418770
3	374413	90.11612899642	418911
3	374451	90.125146728067	419052
3	374469	90.12996899642	419193
3	374487	90.133626728067	419334
3	374508	90.14380899642	419475
3	374631	90.152826728067	419616
3	374668	90.166666728067	419757
3	374700	90.180506728067	419898
3	374718	90.18532899642	420039
3	374731	90.194346728067	420180
3	374749	90.19916899642	420321
3	374903	90.208186728067	420462
3	374913	90.21300899642	420603
3	374967	90.222026728067	420744
3	374985	90.22684899642	420885
3	375003	90.235866728067	421026
3	375021	90.24068899642	421167
3	375154	90.25452899642	421308
3	375199	90.26836899642	421449
3	375229	90.29604899642	421590
3	375385	90.30988899642	421731
3	375620	90.383626728067	421872
3	375638	90.397466728067	422013
3	376620	90.683626728067	422154
3	376638	90.697466728067	422295
3	376794	90.711306728067	422436
3	376866	90.725146728067	422577
3	376992	90.752826728067	422718
3	377041	90.766666728067	422859
3	377080	90.780506728067	423000
3	377098	90.794346728067	423141
3	377606	90.933626728067	423282
3	378744	91.233626728067	423423
3	378746	91.233626728067	423564
3	378748	91.233626728067	423705
3	378793	91.247466728067	423846
3	378795	91.247466728067	423987
3	378927	91.261306728067	424128
3	379497	91.447466728067	424269
3	379624	91.461306728067	424410
3	379730	91.475146728067	424551
3	379760	91.483626728067	424692
3	379782	91.493584192201	424833
3	381212	91.893584192201	424974
3	381758	92.033626728067	425115
3	382131	92.133626728067	425256
3	382158	92.147466728067	425397
3	382281	92.161306728067	425538
3	382341	92.175146728067	425679
3	382912	92.333626728067	425820
3	382944	92.348426728067	425961
3	383064	92.362266728067	426102
3	383676	92.533626728067	426243
3	385011	92.833626728067	426384
3	385013	92.833626728067	426525
3	385048	92.847466728067	426666
3	385050	92.847466728067	426807
3	385194	92.861306728067	426948
3	385196	92.861306728067	427089
3	385288	92.875146728067	427230
3	385290	92.875146728067	427371
3	385340	92.888986728067	427512
3	385342	92.888986728067	427653
3	385510	92.902826728067	427794
3	385558	92.916666728067	427935
3	385560	92.916666728067	428076
3	385604	92.930506728067	428217
3	385606	92.930506728067	428358
3	385638	92.944346728067	428499
3	385768	92.958186728067	428640
3	385770	92.958186728067	428781
3	385827	92.972026728067	428922
3	385863	92.985866728067	429063
3	385865	92.985866728067	429204
3	385900	92.999706728067	429345
3	385902	92.999706728067	429486
3	386075	93.013546728067	429627
3	386077	93.013546728067	429768
3	386156	93.027386728067	429909
3	386158	93.027386728067	430050
3	386187	93.033626728067	430191
3	386211	93.041226728067	430332
3	386213	93.041226728067	430473
3	386353	93.055066728067	430614
3	386355	93.055066728067	430755
3	386414	93.068906728067	430896
3	386416	93.068906728067	431037
3	386469	93.082746728067	431178
3	386471	93.082746728067	431319
3	386527	93.096586728067	431460
3	386708	93.110426728067	431601
3	386784	93.124266728067	431742
3	386824	93.138106728067	431883
3	386939	93.151946728067	432024
3	386970	93.165786728067	432165
3	386998	93.179626728067	432306
3	387160	93.207306728067	432447
3	387186	93.221146728067	432588
3	387218	93.234986728067	432729
3	387249	93.248826728067	432870
3	387398	93.262666728067	433011
3	387453	93.276506728067	433152
3	387472	93.290346728067	433293
3	387627	93.304186728067	433434
3	387670	93.318026728067	433575
3	387712	93.333626728067	433716
3	387731	93.345706728067	433857
3	387855	93.359546728067	433998
3	387919	93.387226728067	434139
3	388071	93.401066728067	434280
3	388096	93.414906728067	434421
3	388153	93.428746728067	434562
3	388184	93.433626728067	434703
3	388212	93.442586728067	434844
3	388334	93.456426728067	434985
3	388395	93.470266728067	435126
3	388417	93.497946728067	435267
3	388572	93.511786728067	435408
3	388633	93.525626728067	435549
3	388652	93.539466728067	435690
3	388774	93.553306728067	435831
3	388800	93.567146728067	435972
3	388836	93.580986728067	436113
3	388850	93.594826728067	436254
3	389005	93.608666728067	436395
3	389102	93.622506728067	436536
3	389121	93.633626728067	436677
3	389140	93.636346728067	436818
3	389159	93.647466728067	436959
3	389283	93.650186728067	437100
3	389294	93.661306728067	437241
3	389305	93.664026728067	437382
3	389382	93.675146728067	437523
3	389401	93.677866728067	437664
3	389423	93.691706728067	437805
3	389576	93.702826728067	437946
3	389595	93.705546728067	438087
3	389626	93.716666728067	438228
3	389645	93.719386728067	438369
3	389664	93.730506728067	438510
3	389683	93.733226728067	438651
3	389702	93.744346728067	438792
3	389721	93.747066728067	438933
3	389843	93.758186728067	439074
3	389854	93.760906728067	439215
3	389868	93.772026728067	439356
3	389879	93.774746728067	439497
3	389918	93.785866728067	439638
3	389932	93.788586728067	439779
3	389962	93.799706728067	439920
3	390119	93.802426728067	440061
3	390165	93.816266728067	440202
3	390206	93.827386728067	440343
3	390225	93.830106728067	440484
3	390244	93.83396899642	440625
3	390263	93.841226728067	440766
3	390391	93.855066728067	440907
3	390410	93.857786728067	441048
3	390441	93.868906728067	441189
3	390461	93.871626728067	441330
3	390491	93.885466728067	441471
3	390528	93.899306728067	441612
3	390721	93.926986728067	441753
3	390740	93.940826728067	441894
3	390862	93.954666728067	442035
3	390905	93.968506728067	442176
3	390942	93.982346728067	442317
3	390961	93.996186728067	442458
3	391118	94.010026728067	442599
3	391191	94.023866728067	442740
3	391210	94.037706728067	442881
3	391332	94.051546728067	443022
3	391375	94.065386728067	443163
3	391406	94.079226728067	443304
3	391425	94.093066728067	443445
3	391602	94.106906728067	443586
3	391642	94.120746728067	443727
3	391661	94.134586728067	443868
3	391680	94.148426728067	444009
3	391806	94.162266728067	444150
3	391898	94.176106728067	444291
3	391917	94.183626728067	444432
3	391936	94.189946728067	444573
3	391955	94.197466728067	444714
3	392112	94.203786728067	444855
3	392123	94.211306728067	444996
3	392169	94.217626728067	445137
3	392205	94.225146728067	445278
3	392224	94.231466728067	445419
3	392243	94.238986728067	445560
3	392262	94.245306728067	445701
3	392384	94.259146728067	445842
3	392439	94.272986728067	445983
3	392458	94.286826728067	446124
3	392615	94.300666728067	446265
3	392626	94.314506728067	446406
3	392695	94.328346728067	446547
3	392714	94.342186728067	446688
3	392836	94.356026728067	446829
3	392876	94.369866728067	446970
3	392895	94.383706728067	447111
3	392914	94.397546728067	447252
3	393071	94.411386728067	447393
3	393119	94.425226728067	447534
3	393138	94.433626728067	447675
3	393157	94.439066728067	447816
3	393276	94.452906728067	447957
3	393323	94.466746728067	448098
3	393362	94.480586728067	448239
3	393381	94.494426728067	448380
3	393592	94.533626728067	448521
3	394018	94.620266728067	448662
3	394036	94.634106728067	448803
3	394049	94.647946728067	448944
3	394170	94.661786728067	449085
3	394206	94.675626728067	449226
3	394224	94.689466728067	449367
3	394382	94.703306728067	449508
3	394448	94.717146728067	449649
3	394493	94.730986728067	449790
3	394617	94.758666728067	449931
3	394668	94.772506728067	450072
3	394686	94.786346728067	450213
3	394840	94.800186728067	450354
3	396515	95.283626728067	450495
3	396517	95.283626728067	450636
3	396683	95.311306728067	450777
3	396722	95.325146728067	450918
3	396740	95.338986728067	451059
3	396859	95.352826728067	451200
3	396889	95.366666728067	451341
3	396916	95.380506728067	451482
3	397496	95.538266728067	451623
3	397510	95.543096785734	451764
3	397728	95.583626728067	451905
3	397747	95.597466728067	452046
3	397904	95.611306728067	452187
3	397938	95.625146728067	452328
3	398498	95.783626728067	452469
3	398516	95.797466728067	452610
3	398674	95.811306728067	452751
3	398776	95.825146728067	452892
3	398794	95.838986728067	453033
3	398947	95.866666728067	453174
3	398983	95.880506728067	453315
3	399001	95.894346728067	453456
3	399153	95.908186728067	453597
3	399192	95.922026728067	453738
3	399210	95.935866728067	453879
3	399228	95.949706728067	454020
3	399353	95.963546728067	454161
3	399431	95.977386728067	454302
3	399461	95.98396899642	454443
3	399484	95.991226728067	454584
3	399652	96.01164899642	454725
3	399868	96.083626728067	454866
3	400275	96.183626728067	455007
3	400303	96.197466728067	455148
3	400878	96.333626728067	455289
3	400896	96.347466728067	455430
3	401144	96.383626728067	455571
3	401146	96.383626728067	455712
3	401180	96.397466728067	455853
3	401182	96.397466728067	455994
3	401348	96.411306728067	456135
3	401423	96.425146728067	456276
3	401441	96.438986728067	456417
3	401560	96.452826728067	456558
3	403246	96.933626728067	456699
3	403810	97.098426728067	456840
3	403986	97.112266728067	456981
3	404025	97.126106728067	457122
3	404043	97.139946728067	457263
3	404166	97.153786728067	457404
3	404220	97.167626728067	457545
3	404281	97.181466728067	457686
3	404291	97.183730596859	457827
3	404313	97.195306728067	457968
3	404323	97.197570596859	458109
3	404488	97.209146728067	458250
3	404498	97.211410596859	458391
3	404617	97.222986728067	458532
3	404627	97.225250596859	458673
3	404654	97.236163130954	458814
3	404665	97.236826728067	458955
3	404678	97.239090596859	459096
3	404810	97.250003130954	459237
3	404821	97.250666728067	459378
3	404839	97.252930596859	459519
3	404866	97.263843130954	459660
3	404877	97.264506728067	459801
3	404907	97.266770596859	459942
3	404954	97.277683130954	460083
3	404968	97.280610596859	460224
3	404987	97.283626728067	460365
3	405006	97.291523130954	460506
3	405158	97.305363130954	460647
3	405213	97.319203130954	460788
3	405262	97.346883130954	460929
3	405386	97.360723130954	461070
3	405412	97.374563130954	461211
3	405451	97.388403130954	461352
3	405604	97.402243130954	461493
3	405635	97.416083130954	461634
3	405663	97.429923130954	461775
3	405682	97.443763130954	461916
3	405808	97.457603130954	462057
3	405892	97.471443130954	462198
3	405911	97.483626728067	462339
3	405922	97.485283130954	462480
3	406793	97.698426728067	462621
3	406948	97.712266728067	462762
3	407144	97.783626728067	462903
3	407158	97.797466728067	463044
3	407315	97.811306728067	463185
3	407355	97.825146728067	463326
3	408642	98.183626728067	463467
3	408660	98.197466728067	463608
3	408824	98.211306728067	463749
3	408955	98.225146728067	463890
3	408982	98.233626728067	464031
3	408996	98.238986728067	464172
3	409115	98.252826728067	464313
3	409137	98.266666728067	464454
3	409172	98.280506728067	464595
3	409190	98.294346728067	464736
3	409344	98.308186728067	464877
3	409408	98.322026728067	465018
3	409426	98.333626728067	465159
3	409437	98.335866728067	465300
3	409458	98.347466728067	465441
3	409469	98.349706728067	465582
3	409602	98.363546728067	465723
3	409691	98.383626728067	465864
3	409892	98.415851532286	466005
3	410279	98.533626728067	466146
3	410409	98.561306728067	466287
3	410532	98.575146728067	466428
3	410550	98.588986728067	466569
3	410702	98.602826728067	466710
3	411343	98.783626728067	466851
3	411345	98.783626728067	466992
3	411377	98.797466728067	467133
3	412099	98.98396899642	467274
3	412738	99.133730596859	467415
3	412757	99.147570596859	467556
3	412877	99.161410596859	467697
3	412917	99.175250596859	467838
3	412936	99.189090596859	467979
3	413089	99.202930596859	468120
3	413108	99.216770596859	468261
3	413607	99.333626728067	468402
3	413812	99.383626728067	468543
3	413831	99.397466728067	468684
3	413988	99.411306728067	468825
3	414079	99.438986728067	468966
3	414098	99.448426728067	469107
3	414225	99.462266728067	469248
3	414247	99.466666728067	469389
3	414266	99.476106728067	469530
3	414285	99.480506728067	469671
3	414466	99.508186728067	469812
3	414500	99.522026728067	469953
3	414519	99.535866728067	470094
3	414538	99.549706728067	470235
3	414682	99.577386728067	470376
3	414696	99.591226728067	470517
3	415657	99.833626728067	470658
3	415702	99.847466728067	470799
3	417910	100.483626728067	470940
3	417929	100.497466728067	471081
3	418090	100.511306728067	471222
3	418189	100.525146728067	471363
3	418220	100.533626728067	471504
3	418248	100.538986728067	471645
3	418383	100.566666728067	471786
3	418933	100.733626728067	471927
3	418951	100.747466728067	472068
3	420945	101.333626728067	472209
3	420964	101.347466728067	472350
3	421622	101.533626728067	472491
3	421781	101.583626728067	472632
3	423786	102.183626728067	472773
3	427995	103.383626728067	472914
3	428013	103.397466728067	473055
3	429866	103.933626728067	473196
3	430379	104.083626728067	473337
3	430397	104.097466728067	473478
3	433260	104.883626728067	473619
3	436997	105.988218386173	473760
3	438614	106.43396899642	473901
3	438731	106.46164899642	474042
3	440302	106.948426728067	474183
3	445827	108.533626728067	474324
3	445845	108.547466728067	474465
3	445968	108.561306728067	474606
3	447653	109.083626728067	474747
3	447671	109.097466728067	474888
3	450172	109.802912534095	475029
3	450233	109.816752534095	475170
3	450270	109.830592534095	475311
3	452109	110.352912534095	475452
3	456243	111.598426728067	475593
3	456395	111.612266728067	475734
3	456434	111.626106728067	475875
3	456452	111.639946728067	476016
3	459793	112.533626728067	476157
3	459811	112.547466728067	476298
3	459930	112.561306728067	476439
3	459969	112.575146728067	476580
3	462366	113.233626728067	476721
3	462384	113.247466728067	476862
3	462503	113.261306728067	477003
3	462542	113.275146728067	477144
3	468613	114.983626728067	477285
3	468631	114.997466728067	477426
3	468785	115.011306728067	477567
3	470096	115.388456785734	477708
3	473140	116.283626728067	477849
3	473780	116.483626728067	477990
3	473798	116.497466728067	478131
3	473952	116.511306728067	478272
3	476193	117.198426728067	478413
3	476348	117.212266728067	478554
3	476409	117.226106728067	478695
3	476837	117.333730596859	478836
3	478663	117.883626728067	478977
3	481388	118.683626728067	479118
3	485016	119.64876899642	479259
3	486968	120.19876899642	479400

