version 2
run Bgw-0-20190930-20:44:25-7538
attr configname Bgw
attr datetime 20190930-20:44:25
attr experiment Bgw
attr inifile SimV2.ini
attr iterationvars ""
attr iterationvarsf ""
attr measurement ""
attr network NetworkTormV2
attr processid 7538
attr repetition 0
attr replication #0
attr resultdir results
attr runnumber 0
attr seedset 0
param **.mobility.traceFile "\"paths/Bgw.movements\""
param **.numNodes 3
param **.wirelessIfc.wirelessRange 40m
param **.bluetoothIfc.wirelessRange 40m
param **.application.usedRNG 1
param **.application.dataGenerationInterval 1s
param **.application.dataSizeInBytes 10
param **.application.ttl 999999s
param **application.nodesThatGen true
param **application.nodesGenMsg "\"0,1,2\""
param **application.startMultipleMsg false
param **application.numMultipleMsg 100
param **application.hopsListSize 50
param **.application.endGeneratingMsg 90s
param **.routingLayer "\"RoutingLqeGw\""
param **.routing.maximumCacheSize 5000byte
param **.routing.maximumHopCount 25
param **.routing.useTTL false
param **.routing.waitBFsend 0.5
param **.routing.max_age 999999s
param **.routing.gateway_list "\"\""
param **.routing.actual_gateway "\"\""
param **.routing.gwCheckPeriod 5s
param **.numNodes 2
param **.application.usedRNG 1
param **.application.dataGenerationInterval 1ms
param **.application.dataSizeInBytes 10
param **.application.ttl 999999s
param **application.destinationAddr "\"Wf:00:00:00:00:02\""
param **application.destinationBTAddr "\"Bt:00:00:00:00:02\""
param **application.nodesThatGen true
param **application.nodesGenMsg "\"0\""
param **application.startMultipleMsg true
param **application.numMultipleMsg 100
param **application.hopsListSize 50
param **.application.endGeneratingMsg 999999s
param **.routingLayer "\"RoutingLqeGw\""
param **.routing.maximumCacheSize 5000byte
param **.routing.maximumHopCount 25
param **.routing.useTTL false
param **.routing.waitBFsend 0.5
param **.routing.max_age 999999s
param **.routing.gateway_list "\"Wf:00:00:00:00:02;0|.\""
param **.routing.actual_gateway "\"Wf:00:00:00:00:02\""
param **.routing.gwCheckPeriod 5s
param **.neighboring.antiEntropyInterval 500ms
param **.neighboring.maximumRandomBackoffDuration 1s
param **.neighboring.delayPerDataMsg 0.1
param **neighboring.usedRNG 2
param **.neighboring.GWAddr "\"Wf:00:00:00:00:02\""
param **.neighboring.sendWifiFirst true
param **.neighboring.maxLengthGraph 20
param **.neighboring.max_age 999999s
param **.neighboring.max_absent_time 1s
param **.wirelessIfc.wirelessRange 15m
param **.wirelessIfc.neighbourScanInterval 50ms
param **.wirelessIfc.bandwidthBitRate 100000bps
param **.wirelessIfc.wirelessHeaderSize 32byte
param **.wirelessIfc.minSSI -90
param **.wirelessIfc.limitQueueTime 400ms
param **.wirelessIfc.my_limit_rate 0bps
param **.bluetoothIfc.wirelessRange 15m
param **.bluetoothIfc.neighbourScanInterval 100ms
param **.bluetoothIfc.bandwidthBitRate 100000bps
param **.bluetoothIfc.wirelessHeaderSize 16byte
param **.bluetoothIfc.minSSI -90
param **.mobilityType "\"BonnMotionMobility\""
param **.mobility.traceFile "\"paths/Moves2.movements\""
param **.mobility.is3D false
param **.mobility.nodeId -1

vector 0 NetworkTormV2 neighbourhoodSize:vector ETV
attr source neighbourhoodSize
vector 1 NetworkTormV2 deliveryRatio:vector ETV
attr source sum(totalDataBytesReceived)/sum(totalDataBytesReceivableByAllNodes)
vector 2 NetworkTormV2 dataBytesReceivedSum:vector ETV
attr source sum(dataBytesReceived)
vector 3 NetworkTormV2 totalBytesReceivedSum:vector ETV
attr source sum(totalBytesReceived)
0	10	0.05	1
0	11	0.05	2
0	12	0.05	1
0	23	0.1	1
0	25	0.1	2
0	27	0.1	1
0	29	0.1	1
0	30	0.1	2
0	31	0.1	1
0	50	0.15	1
0	51	0.15	2
0	52	0.15	1
0	62	0.2	1
0	63	0.2	2
0	64	0.2	1
0	66	0.2	1
0	67	0.2	2
0	68	0.2	1
0	84	0.25	1
0	85	0.25	2
0	86	0.25	1
0	96	0.3	1
0	97	0.3	2
0	98	0.3	1
0	100	0.3	1
0	101	0.3	2
0	102	0.3	1
0	118	0.35	1
0	119	0.35	2
0	120	0.35	1
0	130	0.4	1
0	131	0.4	2
0	132	0.4	1
0	134	0.4	1
0	135	0.4	2
0	136	0.4	1
0	152	0.45	1
0	153	0.45	2
0	154	0.45	1
0	164	0.5	1
0	165	0.5	2
0	166	0.5	1
0	168	0.5	1
0	169	0.5	2
0	170	0.5	1
0	186	0.55	1
0	187	0.55	2
0	188	0.55	1
0	198	0.6	1
0	199	0.6	2
0	200	0.6	1
0	202	0.6	1
0	203	0.6	2
0	204	0.6	1
0	220	0.65	1
0	221	0.65	2
0	222	0.65	1
0	232	0.7	1
0	233	0.7	2
0	234	0.7	1
0	236	0.7	1
0	237	0.7	2
0	238	0.7	1
0	254	0.75	1
0	255	0.75	2
0	256	0.75	1
0	266	0.8	1
0	267	0.8	2
0	268	0.8	1
0	270	0.8	1
0	271	0.8	2
0	272	0.8	1
0	288	0.85	1
0	289	0.85	2
0	290	0.85	1
0	300	0.9	1
0	301	0.9	2
0	302	0.9	1
0	304	0.9	1
0	305	0.9	2
0	306	0.9	1
0	322	0.95	1
0	323	0.95	2
0	324	0.95	1
0	334	1	1
0	335	1	2
0	336	1	1
0	338	1	1
0	339	1	2
0	340	1	1
0	356	1.05	1
0	357	1.05	2
0	358	1.05	1
0	371	1.1	1
0	372	1.1	2
0	373	1.1	1
0	375	1.1	1
0	376	1.1	2
0	377	1.1	1
0	452	1.15	1
0	453	1.15	2
0	454	1.15	1
0	464	1.2	1
0	465	1.2	2
0	466	1.2	1
0	468	1.2	1
0	469	1.2	2
0	470	1.2	1
0	486	1.25	1
0	487	1.25	2
0	488	1.25	1
0	498	1.3	1
0	499	1.3	2
0	500	1.3	1
0	502	1.3	1
0	503	1.3	2
0	504	1.3	1
0	520	1.35	1
0	521	1.35	2
0	522	1.35	1
0	532	1.4	1
0	533	1.4	2
0	534	1.4	1
0	536	1.4	1
0	537	1.4	2
0	538	1.4	1
0	554	1.45	1
0	555	1.45	2
0	556	1.45	1
0	566	1.5	1
0	567	1.5	2
0	568	1.5	1
0	570	1.5	1
0	571	1.5	2
0	572	1.5	1
0	588	1.55	1
0	589	1.55	2
0	590	1.55	1
0	600	1.6	1
0	601	1.6	2
0	602	1.6	1
0	604	1.6	1
0	605	1.6	2
0	606	1.6	1
0	622	1.65	1
0	623	1.65	2
0	624	1.65	1
0	690	1.7	1
0	691	1.7	2
0	692	1.7	1
0	694	1.7	1
0	695	1.7	2
0	696	1.7	1
0	712	1.75	1
0	713	1.75	2
0	714	1.75	1
0	724	1.8	1
0	725	1.8	2
0	726	1.8	1
0	728	1.8	1
0	729	1.8	2
0	730	1.8	1
0	746	1.85	1
0	747	1.85	2
0	748	1.85	1
0	758	1.9	1
0	759	1.9	2
0	760	1.9	1
0	762	1.9	1
0	763	1.9	2
0	764	1.9	1
0	780	1.95	1
0	781	1.95	2
0	782	1.95	1
0	792	2	1
0	793	2	2
0	794	2	1
0	796	2	1
0	797	2	2
0	798	2	1
0	814	2.05	1
0	815	2.05	2
0	816	2.05	1
0	829	2.1	1
0	830	2.1	2
0	831	2.1	1
0	833	2.1	1
0	834	2.1	2
0	835	2.1	1
0	854	2.15	1
0	855	2.15	2
0	856	2.15	1
0	866	2.2	1
0	867	2.2	2
0	868	2.2	1
0	870	2.2	1
0	871	2.2	2
0	872	2.2	1
0	944	2.25	1
0	945	2.25	2
0	946	2.25	1
0	956	2.3	1
0	957	2.3	2
0	958	2.3	1
0	960	2.3	1
0	961	2.3	2
0	962	2.3	1
0	978	2.35	1
0	979	2.35	2
0	980	2.35	1
0	990	2.4	1
0	991	2.4	2
0	992	2.4	1
0	994	2.4	1
0	995	2.4	2
0	996	2.4	1
0	1012	2.45	1
0	1013	2.45	2
0	1014	2.45	1
0	1024	2.5	1
0	1025	2.5	2
0	1026	2.5	1
0	1028	2.5	1
0	1029	2.5	2
0	1030	2.5	1
0	1046	2.55	1
0	1047	2.55	2
0	1048	2.55	1
0	1058	2.6	1
0	1059	2.6	2
0	1060	2.6	1
0	1062	2.6	1
0	1063	2.6	2
0	1064	2.6	1
0	1080	2.65	1
0	1081	2.65	2
0	1082	2.65	1
0	1092	2.7	1
0	1093	2.7	2
0	1094	2.7	1
0	1096	2.7	1
0	1097	2.7	2
0	1098	2.7	1
0	1114	2.75	1
0	1115	2.75	2
0	1116	2.75	1
0	1182	2.8	1
0	1183	2.8	2
0	1184	2.8	1
0	1186	2.8	1
0	1187	2.8	2
0	1188	2.8	1
0	1204	2.85	1
0	1205	2.85	2
0	1206	2.85	1
0	1216	2.9	1
0	1217	2.9	2
0	1218	2.9	1
0	1220	2.9	1
0	1221	2.9	2
0	1222	2.9	1
0	1238	2.95	1
0	1239	2.95	2
0	1240	2.95	1
0	1250	3	1
0	1251	3	2
0	1252	3	1
0	1254	3	1
0	1255	3	2
0	1256	3	1
0	1272	3.05	1
0	1273	3.05	2
0	1274	3.05	1
0	1287	3.1	1
0	1288	3.1	2
0	1289	3.1	1
0	1291	3.1	1
0	1292	3.1	2
0	1293	3.1	1
0	1312	3.15	1
0	1313	3.15	2
0	1314	3.15	1
0	1324	3.2	1
0	1325	3.2	2
0	1326	3.2	1
0	1328	3.2	1
0	1329	3.2	2
0	1330	3.2	1
0	1346	3.25	1
0	1347	3.25	2
0	1348	3.25	1
0	1358	3.3	1
0	1359	3.3	2
0	1360	3.3	1
0	1362	3.3	1
0	1363	3.3	2
0	1364	3.3	1
0	1436	3.35	1
0	1437	3.35	2
0	1438	3.35	1
0	1448	3.4	1
0	1449	3.4	2
0	1450	3.4	1
0	1452	3.4	1
0	1453	3.4	2
0	1454	3.4	1
0	1470	3.45	1
0	1471	3.45	2
0	1472	3.45	1
0	1482	3.5	1
0	1483	3.5	2
0	1484	3.5	1
0	1486	3.5	1
0	1487	3.5	2
0	1488	3.5	1
0	1504	3.55	1
0	1505	3.55	2
0	1506	3.55	1
0	1516	3.6	1
0	1517	3.6	2
0	1518	3.6	1
0	1520	3.6	1
0	1521	3.6	2
0	1522	3.6	1
0	1538	3.65	1
0	1539	3.65	2
0	1540	3.65	1
0	1550	3.7	1
0	1551	3.7	2
0	1552	3.7	1
0	1554	3.7	1
0	1555	3.7	2
0	1556	3.7	1
0	1572	3.75	1
0	1573	3.75	2
0	1574	3.75	1
0	1584	3.8	1
0	1585	3.8	2
0	1586	3.8	1
0	1588	3.8	1
0	1589	3.8	2
0	1590	3.8	1
0	1606	3.85	1
0	1607	3.85	2
0	1608	3.85	1
0	1670	3.9	1
0	1671	3.9	2
0	1672	3.9	1
0	1674	3.9	1
0	1675	3.9	2
0	1676	3.9	1
0	1692	3.95	1
0	1693	3.95	2
0	1694	3.95	1
0	1704	4	1
0	1705	4	2
0	1706	4	1
0	1708	4	1
0	1709	4	2
0	1710	4	1
0	1726	4.05	1
0	1727	4.05	2
0	1728	4.05	1
0	1741	4.1	1
0	1742	4.1	2
0	1743	4.1	1
0	1745	4.1	1
0	1746	4.1	2
0	1747	4.1	1
0	1766	4.15	1
0	1767	4.15	2
0	1768	4.15	1
0	1778	4.2	1
0	1779	4.2	2
0	1780	4.2	1
0	1782	4.2	1
0	1783	4.2	2
0	1784	4.2	1
0	1800	4.25	1
0	1801	4.25	2
0	1802	4.25	1
0	1812	4.3	1
0	1813	4.3	2
0	1814	4.3	1
0	1816	4.3	1
0	1817	4.3	2
0	1818	4.3	1
0	1834	4.35	1
0	1835	4.35	2
0	1836	4.35	1
0	1846	4.4	1
0	1847	4.4	2
0	1848	4.4	1
0	1850	4.4	1
0	1851	4.4	2
0	1852	4.4	1
0	1924	4.45	1
0	1925	4.45	2
0	1926	4.45	1
0	1936	4.5	1
0	1937	4.5	2
0	1938	4.5	1
0	1940	4.5	1
0	1941	4.5	2
0	1942	4.5	1
0	1958	4.55	1
0	1959	4.55	2
0	1960	4.55	1
0	1970	4.6	1
0	1971	4.6	2
0	1972	4.6	1
0	1974	4.6	1
0	1975	4.6	2
0	1976	4.6	1
0	1992	4.65	1
0	1993	4.65	2
0	1994	4.65	1
0	2004	4.7	1
0	2005	4.7	2
0	2006	4.7	1
0	2008	4.7	1
0	2009	4.7	2
0	2010	4.7	1
0	2026	4.75	1
0	2027	4.75	2
0	2028	4.75	1
0	2038	4.8	1
0	2039	4.8	2
0	2040	4.8	1
0	2042	4.8	1
0	2043	4.8	2
0	2044	4.8	1
0	2060	4.85	1
0	2061	4.85	2
0	2062	4.85	1
0	2072	4.9	1
0	2073	4.9	2
0	2074	4.9	1
0	2076	4.9	1
0	2077	4.9	2
0	2078	4.9	1
0	2094	4.95	1
0	2095	4.95	2
0	2096	4.95	1
0	2154	5	1
0	2155	5	2
0	2156	5	1
0	2158	5	1
0	2159	5	2
0	2160	5	1
0	2176	5.05	1
0	2177	5.05	2
0	2178	5.05	1
0	2191	5.1	1
0	2192	5.1	2
0	2193	5.1	1
0	2195	5.1	1
0	2196	5.1	2
0	2197	5.1	1
0	2216	5.15	1
0	2217	5.15	2
0	2218	5.15	1
0	2228	5.2	1
0	2229	5.2	2
0	2230	5.2	1
0	2232	5.2	1
0	2233	5.2	2
0	2234	5.2	1
0	2250	5.25	1
0	2251	5.25	2
0	2252	5.25	1
0	2262	5.3	1
0	2263	5.3	2
0	2264	5.3	1
0	2266	5.3	1
0	2267	5.3	2
0	2268	5.3	1
0	2284	5.35	1
0	2285	5.35	2
0	2286	5.35	1
0	2296	5.4	1
0	2297	5.4	2
0	2298	5.4	1
0	2300	5.4	1
0	2301	5.4	2
0	2302	5.4	1
0	2318	5.45	1
0	2319	5.45	2
0	2320	5.45	1
0	2333	5.5	1
0	2334	5.5	2
0	2335	5.5	1
0	2337	5.5	1
0	2338	5.5	2
0	2339	5.5	1
0	2397	5.55	1
0	2398	5.55	2
0	2399	5.55	1
0	2409	5.6	1
0	2410	5.6	2
0	2411	5.6	1
0	2413	5.6	1
0	2414	5.6	2
0	2415	5.6	1
0	2431	5.65	1
0	2432	5.65	2
0	2433	5.65	1
0	2457	5.7	1
0	2458	5.7	2
0	2459	5.7	1
0	2461	5.7	1
0	2462	5.7	2
0	2463	5.7	1
0	2479	5.75	1
0	2480	5.75	2
0	2481	5.75	1
0	2491	5.8	1
0	2492	5.8	2
0	2493	5.8	1
0	2495	5.8	1
0	2496	5.8	2
0	2497	5.8	1
0	2513	5.85	1
0	2514	5.85	2
0	2515	5.85	1
0	2525	5.9	1
0	2526	5.9	2
0	2527	5.9	1
0	2529	5.9	1
0	2530	5.9	2
0	2531	5.9	1
0	2547	5.95	1
0	2548	5.95	2
0	2549	5.95	1
0	2562	6	1
0	2563	6	2
0	2564	6	1
0	2566	6	1
0	2567	6	2
0	2568	6	1
0	2584	6.05	1
0	2585	6.05	2
0	2586	6.05	1
0	2630	6.1	1
0	2631	6.1	2
0	2632	6.1	1
0	2634	6.1	1
0	2635	6.1	2
0	2636	6.1	1
0	2655	6.15	1
0	2656	6.15	2
0	2657	6.15	1
0	2667	6.2	1
0	2668	6.2	2
0	2669	6.2	1
0	2671	6.2	1
0	2672	6.2	2
0	2673	6.2	1
0	2703	6.25	1
0	2704	6.25	2
0	2705	6.25	1
0	2715	6.3	1
0	2716	6.3	2
0	2717	6.3	1
0	2719	6.3	1
0	2720	6.3	2
0	2721	6.3	1
0	2737	6.35	1
0	2738	6.35	2
0	2739	6.35	1
0	2749	6.4	1
0	2750	6.4	2
0	2751	6.4	1
0	2753	6.4	1
0	2754	6.4	2
0	2755	6.4	1
0	2771	6.45	1
0	2772	6.45	2
0	2773	6.45	1
0	2786	6.5	1
0	2787	6.5	2
0	2788	6.5	1
0	2790	6.5	1
0	2791	6.5	2
0	2792	6.5	1
0	2808	6.55	1
0	2809	6.55	2
0	2810	6.55	1
0	2820	6.6	1
0	2821	6.6	2
0	2822	6.6	1
0	2824	6.6	1
0	2825	6.6	2
0	2826	6.6	1
0	2935	6.65	1
0	2936	6.65	2
0	2937	6.65	1
0	3004	6.7	1
0	3005	6.7	2
0	3006	6.7	1
0	3008	6.7	1
0	3009	6.7	2
0	3010	6.7	1
0	3057	6.75	1
0	3058	6.75	2
0	3059	6.75	1
0	3097	6.8	1
0	3098	6.8	2
0	3099	6.8	1
0	3101	6.8	1
0	3102	6.8	2
0	3103	6.8	1
0	3119	6.85	1
0	3120	6.85	2
0	3121	6.85	1
0	3131	6.9	1
0	3132	6.9	2
0	3133	6.9	1
0	3135	6.9	1
0	3136	6.9	2
0	3137	6.9	1
0	3153	6.95	1
0	3154	6.95	2
0	3155	6.95	1
0	3168	7	1
0	3169	7	2
0	3170	7	1
0	3172	7	1
0	3173	7	2
0	3174	7	1
0	3190	7.05	1
0	3191	7.05	2
0	3192	7.05	1
0	3205	7.1	1
0	3206	7.1	2
0	3207	7.1	1
0	3209	7.1	1
0	3210	7.1	2
0	3211	7.1	1
0	3230	7.15	1
0	3231	7.15	2
0	3232	7.15	1
0	3317	7.2	1
0	3318	7.2	2
0	3319	7.2	1
0	3321	7.2	1
0	3322	7.2	2
0	3323	7.2	1
0	3349	7.25	1
0	3350	7.25	2
0	3351	7.25	1
0	3361	7.3	1
0	3362	7.3	2
0	3363	7.3	1
0	3365	7.3	1
0	3366	7.3	2
0	3367	7.3	1
0	3411	7.35	1
0	3412	7.35	2
0	3413	7.35	1
0	3423	7.4	1
0	3424	7.4	2
0	3425	7.4	1
0	3427	7.4	1
0	3428	7.4	2
0	3429	7.4	1
0	3445	7.45	1
0	3446	7.45	2
0	3447	7.45	1
0	3457	7.5	1
0	3458	7.5	2
0	3459	7.5	1
0	3461	7.5	1
0	3462	7.5	2
0	3463	7.5	1
0	3479	7.55	1
0	3480	7.55	2
0	3481	7.55	1
0	3491	7.6	1
0	3492	7.6	2
0	3493	7.6	1
0	3495	7.6	1
0	3496	7.6	2
0	3497	7.6	1
0	3513	7.65	1
0	3514	7.65	2
0	3515	7.65	1
0	3525	7.7	1
0	3526	7.7	2
0	3527	7.7	1
0	3529	7.7	1
0	3530	7.7	2
0	3531	7.7	1
0	3564	7.75	1
0	3565	7.75	2
0	3566	7.75	1
0	3576	7.8	1
0	3577	7.8	2
0	3578	7.8	1
0	3580	7.8	1
0	3581	7.8	2
0	3582	7.8	1
0	3598	7.85	1
0	3599	7.85	2
0	3600	7.85	1
0	3624	7.9	1
0	3625	7.9	2
0	3626	7.9	1
0	3628	7.9	1
0	3629	7.9	2
0	3630	7.9	1
0	3646	7.95	1
0	3647	7.95	2
0	3648	7.95	1
0	3658	8	1
0	3659	8	2
0	3660	8	1
0	3662	8	1
0	3663	8	2
0	3664	8	1
0	3680	8.05	1
0	3681	8.05	2
0	3682	8.05	1
0	3695	8.1	1
0	3696	8.1	2
0	3697	8.1	1
0	3699	8.1	1
0	3700	8.1	2
0	3701	8.1	1
0	3720	8.15	1
0	3721	8.15	2
0	3722	8.15	1
0	3732	8.2	1
0	3733	8.2	2
0	3734	8.2	1
0	3736	8.2	1
0	3737	8.2	2
0	3738	8.2	1
0	3754	8.25	1
0	3755	8.25	2
0	3756	8.25	1
0	3792	8.3	1
0	3793	8.3	2
0	3794	8.3	1
0	3796	8.3	1
0	3797	8.3	2
0	3798	8.3	1
0	3814	8.35	1
0	3815	8.35	2
0	3816	8.35	1
0	3826	8.4	1
0	3827	8.4	2
0	3828	8.4	1
0	3830	8.4	1
0	3831	8.4	2
0	3832	8.4	1
0	3862	8.45	1
0	3863	8.45	2
0	3864	8.45	1
0	3874	8.5	1
0	3875	8.5	2
0	3876	8.5	1
0	3878	8.5	1
0	3879	8.5	2
0	3880	8.5	1
0	3896	8.55	1
0	3897	8.55	2
0	3898	8.55	1
0	3908	8.6	1
0	3909	8.6	2
0	3910	8.6	1
0	3912	8.6	1
0	3913	8.6	2
0	3914	8.6	1
0	3930	8.65	1
0	3931	8.65	2
0	3932	8.65	1
0	3942	8.7	1
0	3943	8.7	2
0	3944	8.7	1
0	3946	8.7	1
0	3947	8.7	2
0	3948	8.7	1
0	3964	8.75	1
0	3965	8.75	2
0	3966	8.75	1
0	3976	8.8	1
0	3977	8.8	2
0	3978	8.8	1
0	3980	8.8	1
0	3981	8.8	2
0	3982	8.8	1
0	4012	8.85	1
0	4013	8.85	2
0	4014	8.85	1
0	4024	8.9	1
0	4025	8.9	2
0	4026	8.9	1
0	4028	8.9	1
0	4029	8.9	2
0	4030	8.9	1
0	4060	8.95	1
0	4061	8.95	2
0	4062	8.95	1
0	4086	9	1
0	4087	9	2
0	4088	9	1
0	4090	9	1
0	4091	9	2
0	4092	9	1
0	4108	9.05	1
0	4109	9.05	2
0	4110	9.05	1
0	4152	9.1	1
0	4153	9.1	2
0	4154	9.1	1
0	4156	9.1	1
0	4157	9.1	2
0	4158	9.1	1
0	4177	9.15	1
0	4178	9.15	2
0	4179	9.15	1
0	4189	9.2	1
0	4190	9.2	2
0	4191	9.2	1
0	4193	9.2	1
0	4194	9.2	2
0	4195	9.2	1
0	4211	9.25	1
0	4212	9.25	2
0	4213	9.25	1
0	4223	9.3	1
0	4224	9.3	2
0	4225	9.3	1
0	4227	9.3	1
0	4228	9.3	2
0	4229	9.3	1
0	4245	9.35	1
0	4246	9.35	2
0	4247	9.35	1
0	4283	9.4	1
0	4284	9.4	2
0	4285	9.4	1
0	4287	9.4	1
0	4288	9.4	2
0	4289	9.4	1
0	4305	9.45	1
0	4306	9.45	2
0	4307	9.45	1
0	4331	9.5	1
0	4332	9.5	2
0	4333	9.5	1
0	4335	9.5	1
0	4336	9.5	2
0	4337	9.5	1
0	4367	9.55	1
0	4368	9.55	2
0	4369	9.55	1
0	4379	9.6	1
0	4380	9.6	2
0	4381	9.6	1
0	4383	9.6	1
0	4384	9.6	2
0	4385	9.6	1
0	4439	9.65	1
0	4440	9.65	2
0	4441	9.65	1
0	4451	9.7	1
0	4452	9.7	2
0	4453	9.7	1
0	4455	9.7	1
0	4456	9.7	2
0	4457	9.7	1
0	4473	9.75	1
0	4474	9.75	2
0	4475	9.75	1
0	4485	9.8	1
0	4486	9.8	2
0	4487	9.8	1
0	4489	9.8	1
0	4490	9.8	2
0	4491	9.8	1
0	4507	9.85	1
0	4508	9.85	2
0	4509	9.85	1
0	4519	9.9	1
0	4520	9.9	2
0	4521	9.9	1
0	4523	9.9	1
0	4524	9.9	2
0	4525	9.9	1
0	4555	9.95	1
0	4556	9.95	2
0	4557	9.95	1
0	4567	10	1
0	4568	10	2
0	4569	10	1
0	4571	10	1
0	4572	10	2
0	4573	10	1
0	4603	10.05	1
0	4604	10.05	2
0	4605	10.05	1
0	4632	10.1	1
0	4633	10.1	2
0	4634	10.1	1
0	4636	10.1	1
0	4637	10.1	2
0	4638	10.1	1
0	4657	10.15	1
0	4658	10.15	2
0	4659	10.15	1
0	4695	10.2	1
0	4696	10.2	2
0	4697	10.2	1
0	4699	10.2	1
0	4700	10.2	2
0	4701	10.2	1
0	4717	10.25	1
0	4718	10.25	2
0	4719	10.25	1
0	4729	10.3	1
0	4730	10.3	2
0	4731	10.3	1
0	4733	10.3	1
0	4734	10.3	2
0	4735	10.3	1
0	4751	10.35	1
0	4752	10.35	2
0	4753	10.35	1
0	4763	10.4	1
0	4764	10.4	2
0	4765	10.4	1
0	4767	10.4	1
0	4768	10.4	2
0	4769	10.4	1
0	4785	10.45	1
0	4786	10.45	2
0	4787	10.45	1
0	4823	10.5	1
0	4824	10.5	2
0	4825	10.5	1
0	4827	10.5	1
0	4828	10.5	2
0	4829	10.5	1
0	4845	10.55	1
0	4846	10.55	2
0	4847	10.55	1
0	4871	10.6	1
0	4872	10.6	2
0	4873	10.6	1
0	4875	10.6	1
0	4876	10.6	2
0	4877	10.6	1
0	4907	10.65	1
0	4908	10.65	2
0	4909	10.65	1
0	4919	10.7	1
0	4920	10.7	2
0	4921	10.7	1
0	4923	10.7	1
0	4924	10.7	2
0	4925	10.7	1
0	4955	10.75	1
0	4956	10.75	2
0	4957	10.75	1
0	4967	10.8	1
0	4968	10.8	2
0	4969	10.8	1
0	4971	10.8	1
0	4972	10.8	2
0	4973	10.8	1
0	4989	10.85	1
0	4990	10.85	2
0	4991	10.85	1
0	5001	10.9	1
0	5002	10.9	2
0	5003	10.9	1
0	5005	10.9	1
0	5006	10.9	2
0	5007	10.9	1
0	5023	10.95	1
0	5024	10.95	2
0	5025	10.95	1
0	5035	11	1
0	5036	11	2
0	5037	11	1
0	5039	11	1
0	5040	11	2
0	5041	11	1
0	5071	11.05	1
0	5072	11.05	2
0	5073	11.05	1
0	5086	11.1	1
0	5087	11.1	2
0	5088	11.1	1
0	5090	11.1	1
0	5091	11.1	2
0	5092	11.1	1
0	5114	11.15	1
0	5115	11.15	2
0	5116	11.15	1
0	5140	11.2	1
0	5141	11.2	2
0	5142	11.2	1
0	5144	11.2	1
0	5145	11.2	2
0	5146	11.2	1
0	5162	11.25	1
0	5163	11.25	2
0	5164	11.25	1
0	5174	11.3	1
0	5175	11.3	2
0	5176	11.3	1
0	5178	11.3	1
0	5179	11.3	2
0	5180	11.3	1
0	5196	11.35	1
0	5197	11.35	2
0	5198	11.35	1
0	5208	11.4	1
0	5209	11.4	2
0	5210	11.4	1
0	5212	11.4	1
0	5213	11.4	2
0	5214	11.4	1
0	5230	11.45	1
0	5231	11.45	2
0	5232	11.45	1
0	5242	11.5	1
0	5243	11.5	2
0	5244	11.5	1
0	5246	11.5	1
0	5247	11.5	2
0	5248	11.5	1
0	5264	11.55	1
0	5265	11.55	2
0	5266	11.55	1
0	5302	11.6	1
0	5303	11.6	2
0	5304	11.6	1
0	5306	11.6	1
0	5307	11.6	2
0	5308	11.6	1
0	5324	11.65	1
0	5325	11.65	2
0	5326	11.65	1
0	5336	11.7	1
0	5337	11.7	2
0	5338	11.7	1
0	5340	11.7	1
0	5341	11.7	2
0	5342	11.7	1
0	5372	11.75	1
0	5373	11.75	2
0	5374	11.75	1
0	5384	11.8	1
0	5385	11.8	2
0	5386	11.8	1
0	5388	11.8	1
0	5389	11.8	2
0	5390	11.8	1
0	5406	11.85	1
0	5407	11.85	2
0	5408	11.85	1
0	5418	11.9	1
0	5419	11.9	2
0	5420	11.9	1
0	5422	11.9	1
0	5423	11.9	2
0	5424	11.9	1
0	5440	11.95	1
0	5441	11.95	2
0	5442	11.95	1
0	5455	12	1
0	5456	12	2
0	5457	12	1
0	5459	12	1
0	5460	12	2
0	5461	12	1
0	5477	12.05	1
0	5478	12.05	2
0	5479	12.05	1
0	5492	12.1	1
0	5493	12.1	2
0	5494	12.1	1
0	5496	12.1	1
0	5497	12.1	2
0	5498	12.1	1
0	5543	12.15	1
0	5544	12.15	2
0	5545	12.15	1
0	5555	12.2	1
0	5556	12.2	2
0	5557	12.2	1
0	5559	12.2	1
0	5560	12.2	2
0	5561	12.2	1
0	5577	12.25	1
0	5578	12.25	2
0	5579	12.25	1
0	5603	12.3	1
0	5604	12.3	2
0	5605	12.3	1
0	5607	12.3	1
0	5608	12.3	2
0	5609	12.3	1
0	5663	12.35	1
0	5664	12.35	2
0	5665	12.35	1
0	5675	12.4	1
0	5676	12.4	2
0	5677	12.4	1
0	5679	12.4	1
0	5680	12.4	2
0	5681	12.4	1
0	5697	12.45	1
0	5698	12.45	2
0	5699	12.45	1
0	5723	12.5	1
0	5724	12.5	2
0	5725	12.5	1
0	5727	12.5	1
0	5728	12.5	2
0	5729	12.5	1
0	5745	12.55	1
0	5746	12.55	2
0	5747	12.55	1
0	5757	12.6	1
0	5758	12.6	2
0	5759	12.6	1
0	5761	12.6	1
0	5762	12.6	2
0	5763	12.6	1
0	5779	12.65	1
0	5780	12.65	2
0	5781	12.65	1
0	5805	12.7	1
0	5806	12.7	2
0	5807	12.7	1
0	5809	12.7	1
0	5810	12.7	2
0	5811	12.7	1
0	5827	12.75	1
0	5828	12.75	2
0	5829	12.75	1
0	5839	12.8	1
0	5840	12.8	2
0	5841	12.8	1
0	5843	12.8	1
0	5844	12.8	2
0	5845	12.8	1
0	5871	12.85	1
0	5872	12.85	2
0	5873	12.85	1
0	5897	12.9	1
0	5898	12.9	2
0	5899	12.9	1
0	5901	12.9	1
0	5902	12.9	2
0	5903	12.9	1
0	5919	12.95	1
0	5920	12.95	2
0	5921	12.95	1
0	5931	13	1
0	5932	13	2
0	5933	13	1
0	5935	13	1
0	5936	13	2
0	5937	13	1
0	5967	13.05	1
0	5968	13.05	2
0	5969	13.05	1
0	5982	13.1	1
0	5983	13.1	2
0	5984	13.1	1
0	5986	13.1	1
0	5987	13.1	2
0	5988	13.1	1
0	6007	13.15	1
0	6008	13.15	2
0	6009	13.15	1
0	6019	13.2	1
0	6020	13.2	2
0	6021	13.2	1
0	6023	13.2	1
0	6024	13.2	2
0	6025	13.2	1
0	6051	13.25	1
0	6052	13.25	2
0	6053	13.25	1
0	6063	13.3	1
0	6064	13.3	2
0	6065	13.3	1
0	6067	13.3	1
0	6068	13.3	2
0	6069	13.3	1
0	6085	13.35	1
0	6086	13.35	2
0	6087	13.35	1
0	6111	13.4	1
0	6112	13.4	2
0	6113	13.4	1
0	6115	13.4	1
0	6116	13.4	2
0	6117	13.4	1
0	6159	13.45	1
0	6160	13.45	2
0	6161	13.45	1
0	6171	13.5	1
0	6172	13.5	2
0	6173	13.5	1
0	6175	13.5	1
0	6176	13.5	2
0	6177	13.5	1
0	6193	13.55	1
0	6194	13.55	2
0	6195	13.55	1
0	6219	13.6	1
0	6220	13.6	2
0	6221	13.6	1
0	6223	13.6	1
0	6224	13.6	2
0	6225	13.6	1
0	6241	13.65	1
0	6242	13.65	2
0	6243	13.65	1
0	6253	13.7	1
0	6254	13.7	2
0	6255	13.7	1
0	6257	13.7	1
0	6258	13.7	2
0	6259	13.7	1
0	6275	13.75	1
0	6276	13.75	2
0	6277	13.75	1
0	6313	13.8	1
0	6314	13.8	2
0	6315	13.8	1
0	6317	13.8	1
0	6318	13.8	2
0	6319	13.8	1
0	6335	13.85	1
0	6336	13.85	2
0	6337	13.85	1
0	6347	13.9	1
0	6348	13.9	2
0	6349	13.9	1
0	6351	13.9	1
0	6352	13.9	2
0	6353	13.9	1
0	6372	13.95	1
0	6373	13.95	2
0	6374	13.95	1
0	6398	14	1
0	6399	14	2
0	6400	14	1
0	6402	14	1
0	6403	14	2
0	6404	14	1
0	6420	14.05	1
0	6421	14.05	2
0	6422	14.05	1
0	6435	14.1	1
0	6436	14.1	2
0	6437	14.1	1
0	6439	14.1	1
0	6440	14.1	2
0	6441	14.1	1
0	6474	14.15	1
0	6475	14.15	2
0	6476	14.15	1
0	6486	14.2	1
0	6487	14.2	2
0	6488	14.2	1
0	6490	14.2	1
0	6491	14.2	2
0	6492	14.2	1
0	6508	14.25	1
0	6509	14.25	2
0	6510	14.25	1
0	6520	14.3	1
0	6521	14.3	2
0	6522	14.3	1
0	6524	14.3	1
0	6525	14.3	2
0	6526	14.3	1
0	6542	14.35	1
0	6543	14.35	2
0	6544	14.35	1
0	6554	14.4	1
0	6555	14.4	2
0	6556	14.4	1
0	6558	14.4	1
0	6559	14.4	2
0	6560	14.4	1
0	6576	14.45	1
0	6577	14.45	2
0	6578	14.45	1
0	6588	14.5	1
0	6589	14.5	2
0	6590	14.5	1
0	6592	14.5	1
0	6593	14.5	2
0	6594	14.5	1
0	6633	14.55	1
0	6634	14.55	2
0	6635	14.55	1
0	6645	14.6	1
0	6646	14.6	2
0	6647	14.6	1
0	6649	14.6	1
0	6650	14.6	2
0	6651	14.6	1
0	6667	14.65	1
0	6668	14.65	2
0	6669	14.65	1
0	6693	14.7	1
0	6694	14.7	2
0	6695	14.7	1
0	6697	14.7	1
0	6698	14.7	2
0	6699	14.7	1
0	6715	14.75	1
0	6716	14.75	2
0	6717	14.75	1
0	6727	14.8	1
0	6728	14.8	2
0	6729	14.8	1
0	6731	14.8	1
0	6732	14.8	2
0	6733	14.8	1
0	6749	14.85	1
0	6750	14.85	2
0	6751	14.85	1
0	6761	14.9	1
0	6762	14.9	2
0	6763	14.9	1
0	6765	14.9	1
0	6766	14.9	2
0	6767	14.9	1
0	6783	14.95	1
0	6784	14.95	2
0	6785	14.95	1
0	6795	15	1
0	6796	15	2
0	6797	15	1
0	6799	15	1
0	6800	15	2
0	6801	15	1
0	6817	15.05	1
0	6818	15.05	2
0	6819	15.05	1
0	6858	15.1	1
0	6859	15.1	2
0	6860	15.1	1
0	6862	15.1	1
0	6863	15.1	2
0	6864	15.1	1
0	6883	15.15	1
0	6884	15.15	2
0	6885	15.15	1
0	6895	15.2	1
0	6896	15.2	2
0	6897	15.2	1
0	6899	15.2	1
0	6900	15.2	2
0	6901	15.2	1
0	6931	15.25	1
0	6932	15.25	2
0	6933	15.25	1
0	6943	15.3	1
0	6944	15.3	2
0	6945	15.3	1
0	6947	15.3	1
0	6948	15.3	2
0	6949	15.3	1
0	6965	15.35	1
0	6966	15.35	2
0	6967	15.35	1
0	7015	15.4	1
0	7016	15.4	2
0	7017	15.4	1
0	7019	15.4	1
0	7020	15.4	2
0	7021	15.4	1
0	7037	15.45	1
0	7038	15.45	2
0	7039	15.45	1
0	7049	15.5	1
0	7050	15.5	2
0	7051	15.5	1
0	7053	15.5	1
0	7054	15.5	2
0	7055	15.5	1
0	7085	15.55	1
0	7086	15.55	2
0	7087	15.55	1
0	7097	15.6	1
0	7098	15.6	2
0	7099	15.6	1
0	7101	15.6	1
0	7102	15.6	2
0	7103	15.6	1
0	7145	15.65	1
0	7146	15.65	2
0	7147	15.65	1
0	7157	15.7	1
0	7158	15.7	2
0	7159	15.7	1
0	7161	15.7	1
0	7162	15.7	2
0	7163	15.7	1
0	7179	15.75	1
0	7180	15.75	2
0	7181	15.75	1
0	7205	15.8	1
0	7206	15.8	2
0	7207	15.8	1
0	7209	15.8	1
0	7210	15.8	2
0	7211	15.8	1
0	7227	15.85	1
0	7228	15.85	2
0	7229	15.85	1
0	7239	15.9	1
0	7240	15.9	2
0	7241	15.9	1
0	7243	15.9	1
0	7244	15.9	2
0	7245	15.9	1
0	7275	15.95	1
0	7276	15.95	2
0	7277	15.95	1
0	7287	16	1
0	7288	16	2
0	7289	16	1
0	7291	16	1
0	7292	16	2
0	7293	16	1
0	7309	16.05	1
0	7310	16.05	2
0	7311	16.05	1
0	7338	16.1	1
0	7339	16.1	2
0	7340	16.1	1
0	7342	16.1	1
0	7343	16.1	2
0	7344	16.1	1
0	7363	16.15	1
0	7364	16.15	2
0	7365	16.15	1
0	7401	16.2	1
0	7402	16.2	2
0	7403	16.2	1
0	7405	16.2	1
0	7406	16.2	2
0	7407	16.2	1
0	7423	16.25	1
0	7424	16.25	2
0	7425	16.25	1
0	7435	16.3	1
0	7436	16.3	2
0	7437	16.3	1
0	7439	16.3	1
0	7440	16.3	2
0	7441	16.3	1
0	7460	16.35	1
0	7461	16.35	2
0	7462	16.35	1
0	7472	16.4	1
0	7473	16.4	2
0	7474	16.4	1
0	7476	16.4	1
0	7477	16.4	2
0	7478	16.4	1
0	7494	16.45	1
0	7495	16.45	2
0	7496	16.45	1
0	7532	16.5	1
0	7533	16.5	2
0	7534	16.5	1
0	7536	16.5	1
0	7537	16.5	2
0	7538	16.5	1
0	7554	16.55	1
0	7555	16.55	2
0	7556	16.55	1
0	7566	16.6	1
0	7567	16.6	2
0	7568	16.6	1
0	7570	16.6	1
0	7571	16.6	2
0	7572	16.6	1
0	7602	16.65	1
0	7603	16.65	2
0	7604	16.65	1
0	7614	16.7	1
0	7615	16.7	2
0	7616	16.7	1
0	7618	16.7	1
0	7619	16.7	2
0	7620	16.7	1
0	7636	16.75	1
0	7637	16.75	2
0	7638	16.75	1
0	7648	16.8	1
0	7649	16.8	2
0	7650	16.8	1
0	7652	16.8	1
0	7653	16.8	2
0	7654	16.8	1
0	7670	16.85	1
0	7671	16.85	2
0	7672	16.85	1
0	7682	16.9	1
0	7683	16.9	2
0	7684	16.9	1
0	7686	16.9	1
0	7687	16.9	2
0	7688	16.9	1
0	7704	16.95	1
0	7705	16.95	2
0	7706	16.95	1
0	7719	17	1
0	7720	17	2
0	7721	17	1
0	7723	17	1
0	7724	17	2
0	7725	17	1
0	7755	17.05	1
0	7756	17.05	2
0	7757	17.05	1
0	7770	17.1	1
0	7771	17.1	2
0	7772	17.1	1
0	7774	17.1	1
0	7775	17.1	2
0	7776	17.1	1
0	7795	17.15	1
0	7796	17.15	2
0	7797	17.15	1
0	7821	17.2	1
0	7822	17.2	2
0	7823	17.2	1
0	7825	17.2	1
0	7826	17.2	2
0	7827	17.2	1
0	7843	17.25	1
0	7844	17.25	2
0	7845	17.25	1
0	7855	17.3	1
0	7856	17.3	2
0	7857	17.3	1
0	7859	17.3	1
0	7860	17.3	2
0	7861	17.3	1
0	7877	17.35	1
0	7878	17.35	2
0	7879	17.35	1
0	7889	17.4	1
0	7890	17.4	2
0	7891	17.4	1
0	7893	17.4	1
0	7894	17.4	2
0	7895	17.4	1
0	7911	17.45	1
0	7912	17.45	2
0	7913	17.45	1
0	7923	17.5	1
0	7924	17.5	2
0	7925	17.5	1
0	7927	17.5	1
0	7928	17.5	2
0	7929	17.5	1
0	7945	17.55	1
0	7946	17.55	2
0	7947	17.55	1
0	7974	17.6	1
0	7975	17.6	2
0	7976	17.6	1
0	7978	17.6	1
0	7979	17.6	2
0	7980	17.6	1
0	7996	17.65	1
0	7997	17.65	2
0	7998	17.65	1
0	8008	17.7	1
0	8009	17.7	2
0	8010	17.7	1
0	8012	17.7	1
0	8013	17.7	2
0	8014	17.7	1
0	8040	17.75	1
0	8041	17.75	2
0	8042	17.75	1
0	8055	17.8	1
0	8056	17.8	2
0	8057	17.8	1
0	8059	17.8	1
0	8060	17.8	2
0	8061	17.8	1
0	8077	17.85	1
0	8078	17.85	2
0	8079	17.85	1
0	8089	17.9	1
0	8090	17.9	2
0	8091	17.9	1
0	8093	17.9	1
0	8094	17.9	2
0	8095	17.9	1
0	8121	17.95	1
0	8122	17.95	2
0	8123	17.95	1
0	8133	18	1
0	8134	18	2
0	8135	18	1
0	8137	18	1
0	8138	18	2
0	8139	18	1
0	8155	18.05	1
0	8156	18.05	2
0	8157	18.05	1
0	8170	18.1	1
0	8171	18.1	2
0	8172	18.1	1
0	8174	18.1	1
0	8175	18.1	2
0	8176	18.1	1
0	8230	18.15	1
0	8231	18.15	2
0	8232	18.15	1
0	8242	18.2	1
0	8243	18.2	2
0	8244	18.2	1
0	8246	18.2	1
0	8247	18.2	2
0	8248	18.2	1
0	8264	18.25	1
0	8265	18.25	2
0	8266	18.25	1
0	8290	18.3	1
0	8291	18.3	2
0	8292	18.3	1
0	8294	18.3	1
0	8295	18.3	2
0	8296	18.3	1
0	8315	18.35	1
0	8316	18.35	2
0	8317	18.35	1
0	8327	18.4	1
0	8328	18.4	2
0	8329	18.4	1
0	8331	18.4	1
0	8332	18.4	2
0	8333	18.4	1
0	8349	18.45	1
0	8350	18.45	2
0	8351	18.45	1
0	8361	18.5	1
0	8362	18.5	2
0	8363	18.5	1
0	8365	18.5	1
0	8366	18.5	2
0	8367	18.5	1
0	8383	18.55	1
0	8384	18.55	2
0	8385	18.55	1
0	8395	18.6	1
0	8396	18.6	2
0	8397	18.6	1
0	8399	18.6	1
0	8400	18.6	2
0	8401	18.6	1
0	8417	18.65	1
0	8418	18.65	2
0	8419	18.65	1
0	8455	18.7	1
0	8456	18.7	2
0	8457	18.7	1
0	8459	18.7	1
0	8460	18.7	2
0	8461	18.7	1
0	8477	18.75	1
0	8478	18.75	2
0	8479	18.75	1
0	8489	18.8	1
0	8490	18.8	2
0	8491	18.8	1
0	8493	18.8	1
0	8494	18.8	2
0	8495	18.8	1
0	8525	18.85	1
0	8526	18.85	2
0	8527	18.85	1
0	8537	18.9	1
0	8538	18.9	2
0	8539	18.9	1
0	8541	18.9	1
0	8542	18.9	2
0	8543	18.9	1
0	8559	18.95	1
0	8560	18.95	2
0	8561	18.95	1
0	8571	19	1
0	8572	19	2
0	8573	19	1
0	8575	19	1
0	8576	19	2
0	8577	19	1
0	8593	19.05	1
0	8594	19.05	2
0	8595	19.05	1
0	8608	19.1	1
0	8609	19.1	2
0	8610	19.1	1
0	8612	19.1	1
0	8613	19.1	2
0	8614	19.1	1
0	8633	19.15	1
0	8634	19.15	2
0	8635	19.15	1
0	8645	19.2	1
0	8646	19.2	2
0	8647	19.2	1
0	8649	19.2	1
0	8650	19.2	2
0	8651	19.2	1
0	8693	19.25	1
0	8694	19.25	2
0	8695	19.25	1
0	8705	19.3	1
0	8706	19.3	2
0	8707	19.3	1
0	8709	19.3	1
0	8710	19.3	2
0	8711	19.3	1
0	8727	19.35	1
0	8728	19.35	2
0	8729	19.35	1
0	8753	19.4	1
0	8754	19.4	2
0	8755	19.4	1
0	8757	19.4	1
0	8758	19.4	2
0	8759	19.4	1
0	8775	19.45	1
0	8776	19.45	2
0	8777	19.45	1
0	8787	19.5	1
0	8788	19.5	2
0	8789	19.5	1
0	8791	19.5	1
0	8792	19.5	2
0	8793	19.5	1
0	8812	19.55	1
0	8813	19.55	2
0	8814	19.55	1
0	8824	19.6	1
0	8825	19.6	2
0	8826	19.6	1
0	8828	19.6	1
0	8829	19.6	2
0	8830	19.6	1
0	8846	19.65	1
0	8847	19.65	2
0	8848	19.65	1
0	8858	19.7	1
0	8859	19.7	2
0	8860	19.7	1
0	8862	19.7	1
0	8863	19.7	2
0	8864	19.7	1
0	8880	19.75	1
0	8881	19.75	2
0	8882	19.75	1
0	8906	19.8	1
0	8907	19.8	2
0	8908	19.8	1
0	8910	19.8	1
0	8911	19.8	2
0	8912	19.8	1
0	8928	19.85	1
0	8929	19.85	2
0	8930	19.85	1
0	8940	19.9	1
0	8941	19.9	2
0	8942	19.9	1
0	8944	19.9	1
0	8945	19.9	2
0	8946	19.9	1
0	8986	19.95	1
0	8987	19.95	2
0	8988	19.95	1
0	8998	20	1
0	8999	20	2
0	9000	20	1
0	9002	20	1
0	9003	20	2
0	9004	20	1
0	9020	20.05	1
0	9021	20.05	2
0	9022	20.05	1
0	9049	20.1	1
0	9050	20.1	2
0	9051	20.1	1
0	9053	20.1	1
0	9054	20.1	2
0	9055	20.1	1
0	9074	20.15	1
0	9075	20.15	2
0	9076	20.15	1
0	9086	20.2	1
0	9087	20.2	2
0	9088	20.2	1
0	9090	20.2	1
0	9091	20.2	2
0	9092	20.2	1
0	9108	20.25	1
0	9109	20.25	2
0	9110	20.25	1
0	9120	20.3	1
0	9121	20.3	2
0	9122	20.3	1
0	9124	20.3	1
0	9125	20.3	2
0	9126	20.3	1
0	9168	20.35	1
0	9169	20.35	2
0	9170	20.35	1
0	9180	20.4	1
0	9181	20.4	1
0	9182	20.4	0
0	9184	20.4	1
0	9185	20.4	1
0	9186	20.4	0
0	9200	20.45	1
0	9201	20.45	1
0	9202	20.45	0
0	9222	20.5	1
0	9223	20.5	1
0	9224	20.5	0
0	9226	20.5	1
0	9227	20.5	1
0	9228	20.5	0
0	9242	20.55	1
0	9243	20.55	1
0	9244	20.55	0
0	9254	20.6	1
0	9255	20.6	1
0	9256	20.6	0
0	9258	20.6	1
0	9259	20.6	1
0	9260	20.6	0
0	9274	20.65	1
0	9275	20.65	1
0	9276	20.65	0
0	9286	20.7	1
0	9287	20.7	1
0	9288	20.7	0
0	9290	20.7	1
0	9291	20.7	1
0	9292	20.7	0
0	9306	20.75	1
0	9307	20.75	1
0	9308	20.75	0
0	9318	20.8	1
0	9319	20.8	1
0	9320	20.8	0
0	9322	20.8	1
0	9323	20.8	1
0	9324	20.8	0
0	9338	20.85	1
0	9339	20.85	1
0	9340	20.85	0
0	9364	20.9	1
0	9365	20.9	1
0	9366	20.9	0
0	9368	20.9	1
0	9369	20.9	1
0	9370	20.9	0
0	9384	20.95	1
0	9385	20.95	1
0	9386	20.95	0
0	9396	21	1
0	9397	21	1
0	9398	21	0
0	9400	21	1
0	9401	21	1
0	9402	21	0
0	9430	21.05	1
0	9431	21.05	1
0	9432	21.05	0
0	9445	21.1	1
0	9446	21.1	1
0	9447	21.1	0
0	9449	21.1	1
0	9450	21.1	1
0	9451	21.1	0
0	9468	21.15	1
0	9469	21.15	1
0	9470	21.15	0
0	9480	21.2	1
0	9481	21.2	1
0	9482	21.2	0
0	9484	21.2	1
0	9485	21.2	1
0	9486	21.2	0
0	9500	21.25	1
0	9501	21.25	1
0	9502	21.25	0
0	9512	21.3	1
0	9513	21.3	1
0	9514	21.3	0
0	9516	21.3	1
0	9517	21.3	1
0	9518	21.3	0
0	9532	21.35	1
0	9533	21.35	1
0	9534	21.35	0
0	9544	21.4	1
0	9545	21.4	1
0	9546	21.4	0
0	9548	21.4	1
0	9549	21.4	1
0	9550	21.4	0
0	9590	21.45	1
0	9591	21.45	1
0	9592	21.45	0
0	9602	21.5	1
0	9603	21.5	1
0	9604	21.5	0
0	9606	21.5	1
0	9607	21.5	1
0	9608	21.5	0
0	9622	21.55	1
0	9623	21.55	1
0	9624	21.55	0
0	9648	21.6	1
0	9649	21.6	1
0	9650	21.6	0
0	9652	21.6	1
0	9653	21.6	1
0	9654	21.6	0
0	9668	21.65	1
0	9669	21.65	1
0	9670	21.65	0
0	9680	21.7	1
0	9681	21.7	1
0	9682	21.7	0
0	9684	21.7	1
0	9685	21.7	1
0	9686	21.7	0
0	9700	21.75	1
0	9701	21.75	1
0	9702	21.75	0
0	9712	21.8	1
0	9713	21.8	1
0	9714	21.8	0
0	9716	21.8	1
0	9717	21.8	1
0	9718	21.8	0
0	9732	21.85	1
0	9733	21.85	1
0	9734	21.85	0
0	9744	21.9	1
0	9745	21.9	1
0	9746	21.9	0
0	9748	21.9	1
0	9749	21.9	1
0	9750	21.9	0
0	9764	21.95	1
0	9765	21.95	1
0	9766	21.95	0
0	9793	22	1
0	9794	22	1
0	9795	22	0
0	9797	22	1
0	9798	22	1
0	9799	22	0
0	9813	22.05	1
0	9814	22.05	1
0	9815	22.05	0
0	9828	22.1	1
0	9829	22.1	1
0	9830	22.1	0
0	9832	22.1	1
0	9833	22.1	1
0	9834	22.1	0
0	9865	22.15	1
0	9866	22.15	1
0	9867	22.15	0
0	9877	22.2	1
0	9878	22.2	1
0	9879	22.2	0
0	9881	22.2	1
0	9882	22.2	1
0	9883	22.2	0
0	9897	22.25	1
0	9898	22.25	1
0	9899	22.25	0
0	9909	22.3	1
0	9910	22.3	1
0	9911	22.3	0
0	9913	22.3	1
0	9914	22.3	1
0	9915	22.3	0
0	9929	22.35	1
0	9930	22.35	1
0	9931	22.35	0
0	9941	22.4	1
0	9942	22.4	1
0	9943	22.4	0
0	9945	22.4	1
0	9946	22.4	1
0	9947	22.4	0
0	9961	22.45	1
0	9962	22.45	1
0	9963	22.45	0
0	9973	22.5	1
0	9974	22.5	1
0	9975	22.5	0
0	9977	22.5	1
0	9978	22.5	1
0	9979	22.5	0
0	10010	22.55	1
0	10011	22.55	1
0	10012	22.55	0
0	10022	22.6	1
0	10023	22.6	1
0	10024	22.6	0
0	10026	22.6	1
0	10027	22.6	1
0	10028	22.6	0
0	10042	22.65	1
0	10043	22.65	1
0	10044	22.65	0
0	10068	22.7	1
0	10069	22.7	1
0	10070	22.7	0
0	10072	22.7	1
0	10073	22.7	1
0	10074	22.7	0
0	10088	22.75	1
0	10089	22.75	1
0	10090	22.75	0
0	10100	22.8	1
0	10101	22.8	1
0	10102	22.8	0
0	10104	22.8	1
0	10105	22.8	1
0	10106	22.8	0
0	10120	22.85	1
0	10121	22.85	1
0	10122	22.85	0
0	10132	22.9	1
0	10133	22.9	1
0	10134	22.9	0
0	10136	22.9	1
0	10137	22.9	1
0	10138	22.9	0
0	10152	22.95	1
0	10153	22.95	1
0	10154	22.95	0
0	10164	23	1
0	10165	23	1
0	10166	23	0
0	10168	23	1
0	10169	23	1
0	10170	23	0
0	10184	23.05	1
0	10185	23.05	1
0	10186	23.05	0
0	10225	23.1	1
0	10226	23.1	1
0	10227	23.1	0
0	10229	23.1	1
0	10230	23.1	1
0	10231	23.1	0
0	10248	23.15	1
0	10249	23.15	1
0	10250	23.15	0
0	10260	23.2	1
0	10261	23.2	1
0	10262	23.2	0
0	10264	23.2	1
0	10265	23.2	1
0	10266	23.2	0
0	10294	23.25	1
0	10295	23.25	1
0	10296	23.25	0
0	10306	23.3	1
0	10307	23.3	1
0	10308	23.3	0
0	10310	23.3	1
0	10311	23.3	1
0	10312	23.3	0
0	10326	23.35	1
0	10327	23.35	1
0	10328	23.35	0
0	10338	23.4	1
0	10339	23.4	1
0	10340	23.4	0
0	10342	23.4	1
0	10343	23.4	1
0	10344	23.4	0
0	10358	23.45	1
0	10359	23.45	1
0	10360	23.45	0
0	10370	23.5	1
0	10371	23.5	1
0	10372	23.5	0
0	10374	23.5	1
0	10375	23.5	1
0	10376	23.5	0
0	10390	23.55	1
0	10391	23.55	1
0	10392	23.55	0
0	10402	23.6	1
0	10403	23.6	1
0	10404	23.6	0
0	10406	23.6	1
0	10407	23.6	1
0	10408	23.6	0
0	10439	23.65	1
0	10440	23.65	1
0	10441	23.65	0
0	10451	23.7	1
0	10452	23.7	1
0	10453	23.7	0
0	10455	23.7	1
0	10456	23.7	1
0	10457	23.7	0
0	10471	23.75	1
0	10472	23.75	1
0	10473	23.75	0
0	10497	23.8	1
0	10498	23.8	1
0	10499	23.8	0
0	10501	23.8	1
0	10502	23.8	1
0	10503	23.8	0
0	10517	23.85	1
0	10518	23.85	1
0	10519	23.85	0
0	10529	23.9	1
0	10530	23.9	1
0	10531	23.9	0
0	10533	23.9	1
0	10534	23.9	1
0	10535	23.9	0
0	10549	23.95	1
0	10550	23.95	1
0	10551	23.95	0
0	10561	24	1
0	10562	24	1
0	10563	24	0
0	10565	24	1
0	10566	24	1
0	10567	24	0
0	10581	24.05	1
0	10582	24.05	1
0	10583	24.05	0
0	10596	24.1	1
0	10597	24.1	1
0	10598	24.1	0
0	10600	24.1	1
0	10601	24.1	1
0	10602	24.1	0
0	10619	24.15	1
0	10620	24.15	1
0	10621	24.15	0
0	10634	24.2	1
0	10635	24.2	1
0	10636	24.2	0
0	10638	24.2	1
0	10639	24.2	1
0	10640	24.2	0
0	10654	24.25	1
0	10655	24.25	1
0	10656	24.25	0
0	10666	24.3	1
0	10667	24.3	1
0	10668	24.3	0
0	10670	24.3	1
0	10671	24.3	1
0	10672	24.3	0
0	10686	24.35	1
0	10687	24.35	1
0	10688	24.35	0
0	10698	24.4	1
0	10699	24.4	1
0	10700	24.4	0
0	10702	24.4	1
0	10703	24.4	1
0	10704	24.4	0
0	10718	24.45	1
0	10719	24.45	1
0	10720	24.45	0
0	10730	24.5	1
0	10731	24.5	1
0	10732	24.5	0
0	10734	24.5	1
0	10735	24.5	1
0	10736	24.5	0
0	10750	24.55	1
0	10751	24.55	1
0	10752	24.55	0
0	10762	24.6	1
0	10763	24.6	1
0	10764	24.6	0
0	10766	24.6	1
0	10767	24.6	1
0	10768	24.6	0
0	10782	24.65	1
0	10783	24.65	1
0	10784	24.65	0
0	10794	24.7	1
0	10795	24.7	1
0	10796	24.7	0
0	10798	24.7	1
0	10799	24.7	1
0	10800	24.7	0
0	10814	24.75	1
0	10815	24.75	1
0	10816	24.75	0
0	10826	24.8	1
0	10827	24.8	1
0	10828	24.8	0
0	10830	24.8	1
0	10831	24.8	1
0	10832	24.8	0
0	10846	24.85	1
0	10847	24.85	1
0	10848	24.85	0
0	10858	24.9	1
0	10859	24.9	1
0	10860	24.9	0
0	10862	24.9	1
0	10863	24.9	1
0	10864	24.9	0
0	10878	24.95	1
0	10879	24.95	1
0	10880	24.95	0
0	10890	25	1
0	10891	25	1
0	10892	25	0
0	10894	25	1
0	10895	25	1
0	10896	25	0
0	10910	25.05	1
0	10911	25.05	1
0	10912	25.05	0
0	10925	25.1	1
0	10926	25.1	1
0	10927	25.1	0
0	10929	25.1	1
0	10930	25.1	1
0	10931	25.1	0
0	10948	25.15	1
0	10949	25.15	1
0	10950	25.15	0
0	10960	25.2	1
0	10961	25.2	1
0	10962	25.2	0
0	10964	25.2	1
0	10965	25.2	1
0	10966	25.2	0
0	10980	25.25	1
0	10981	25.25	1
0	10982	25.25	0
0	10992	25.3	1
0	10993	25.3	1
0	10994	25.3	0
0	10996	25.3	1
0	10997	25.3	1
0	10998	25.3	0
0	11012	25.35	1
0	11013	25.35	1
0	11014	25.35	0
0	11034	25.4	1
0	11035	25.4	1
0	11036	25.4	0
0	11038	25.4	1
0	11039	25.4	1
0	11040	25.4	0
0	11054	25.45	1
0	11055	25.45	1
0	11056	25.45	0
0	11066	25.5	1
0	11067	25.5	1
0	11068	25.5	0
0	11070	25.5	1
0	11071	25.5	1
0	11072	25.5	0
0	11126	25.55	1
0	11127	25.55	1
0	11128	25.55	0
0	11148	25.6	1
0	11149	25.6	1
0	11150	25.6	0
0	11152	25.6	1
0	11153	25.6	1
0	11154	25.6	0
0	11168	25.65	1
0	11169	25.65	1
0	11170	25.65	0
0	11180	25.7	1
0	11181	25.7	1
0	11182	25.7	0
0	11184	25.7	1
0	11185	25.7	1
0	11186	25.7	0
0	11200	25.75	1
0	11201	25.75	1
0	11202	25.75	0
0	11212	25.8	1
0	11213	25.8	1
0	11214	25.8	0
0	11216	25.8	1
0	11217	25.8	1
0	11218	25.8	0
0	11232	25.85	1
0	11233	25.85	1
0	11234	25.85	0
0	11244	25.9	1
0	11245	25.9	1
0	11246	25.9	0
0	11248	25.9	1
0	11249	25.9	1
0	11250	25.9	0
0	11278	25.95	1
0	11279	25.95	1
0	11280	25.95	0
0	11290	26	1
0	11291	26	1
0	11292	26	0
0	11294	26	1
0	11295	26	1
0	11296	26	0
0	11310	26.05	1
0	11311	26.05	1
0	11312	26.05	0
0	11339	26.1	1
0	11340	26.1	1
0	11341	26.1	0
0	11343	26.1	1
0	11344	26.1	1
0	11345	26.1	0
0	11362	26.15	1
0	11363	26.15	1
0	11364	26.15	0
0	11374	26.2	1
0	11375	26.2	1
0	11376	26.2	0
0	11378	26.2	1
0	11379	26.2	1
0	11380	26.2	0
0	11394	26.25	1
0	11395	26.25	1
0	11396	26.25	0
0	11406	26.3	1
0	11407	26.3	1
0	11408	26.3	0
0	11410	26.3	1
0	11411	26.3	1
0	11412	26.3	0
0	11426	26.35	1
0	11427	26.35	1
0	11428	26.35	0
0	11438	26.4	1
0	11439	26.4	1
0	11440	26.4	0
0	11442	26.4	1
0	11443	26.4	1
0	11444	26.4	0
0	11458	26.45	1
0	11459	26.45	1
0	11460	26.45	0
0	11484	26.5	1
0	11485	26.5	1
0	11486	26.5	0
0	11488	26.5	1
0	11489	26.5	1
0	11490	26.5	0
0	11504	26.55	1
0	11505	26.55	1
0	11506	26.55	0
0	11516	26.6	1
0	11517	26.6	1
0	11518	26.6	0
0	11520	26.6	1
0	11521	26.6	1
0	11522	26.6	0
0	11562	26.65	1
0	11563	26.65	1
0	11564	26.65	0
0	11574	26.7	1
0	11575	26.7	1
0	11576	26.7	0
0	11578	26.7	1
0	11579	26.7	1
0	11580	26.7	0
0	11594	26.75	1
0	11595	26.75	1
0	11596	26.75	0
0	11606	26.8	1
0	11607	26.8	1
0	11608	26.8	0
0	11610	26.8	1
0	11611	26.8	1
0	11612	26.8	0
0	11626	26.85	1
0	11627	26.85	1
0	11628	26.85	0
0	11638	26.9	1
0	11639	26.9	1
0	11640	26.9	0
0	11642	26.9	1
0	11643	26.9	1
0	11644	26.9	0
0	11658	26.95	1
0	11659	26.95	1
0	11660	26.95	0
0	11673	27	1
0	11674	27	1
0	11675	27	0
0	11677	27	1
0	11678	27	1
0	11679	27	0
0	11707	27.05	1
0	11708	27.05	1
0	11709	27.05	0
0	11722	27.1	1
0	11723	27.1	1
0	11724	27.1	0
0	11726	27.1	1
0	11727	27.1	1
0	11728	27.1	0
0	11745	27.15	1
0	11746	27.15	1
0	11747	27.15	0
0	11783	27.2	1
0	11784	27.2	1
0	11785	27.2	0
0	11787	27.2	1
0	11788	27.2	1
0	11789	27.2	0
0	11803	27.25	1
0	11804	27.25	1
0	11805	27.25	0
0	11815	27.3	1
0	11816	27.3	1
0	11817	27.3	0
0	11819	27.3	1
0	11820	27.3	1
0	11821	27.3	0
0	11835	27.35	1
0	11836	27.35	1
0	11837	27.35	0
0	11847	27.4	1
0	11848	27.4	1
0	11849	27.4	0
0	11851	27.4	1
0	11852	27.4	1
0	11853	27.4	0
0	11867	27.45	1
0	11868	27.45	1
0	11869	27.45	0
0	11879	27.5	1
0	11880	27.5	1
0	11881	27.5	0
0	11883	27.5	1
0	11884	27.5	1
0	11885	27.5	0
0	11899	27.55	1
0	11900	27.55	1
0	11901	27.55	0
0	11925	27.6	1
0	11926	27.6	1
0	11927	27.6	0
0	11929	27.6	1
0	11930	27.6	1
0	11931	27.6	0
0	11945	27.65	1
0	11946	27.65	1
0	11947	27.65	0
0	11957	27.7	1
0	11958	27.7	1
0	11959	27.7	0
0	11961	27.7	1
0	11962	27.7	1
0	11963	27.7	0
0	11991	27.75	1
0	11992	27.75	1
0	11993	27.75	0
0	12003	27.8	1
0	12004	27.8	1
0	12005	27.8	0
0	12007	27.8	1
0	12008	27.8	1
0	12009	27.8	0
0	12023	27.85	1
0	12024	27.85	1
0	12025	27.85	0
0	12035	27.9	1
0	12036	27.9	1
0	12037	27.9	0
0	12039	27.9	1
0	12040	27.9	1
0	12041	27.9	0
0	12055	27.95	1
0	12056	27.95	1
0	12057	27.95	0
0	12067	28	1
0	12068	28	1
0	12069	28	0
0	12071	28	1
0	12072	28	1
0	12073	28	0
0	12087	28.05	1
0	12088	28.05	1
0	12089	28.05	0
0	12102	28.1	1
0	12103	28.1	1
0	12104	28.1	0
0	12106	28.1	1
0	12107	28.1	1
0	12108	28.1	0
0	12139	28.15	1
0	12140	28.15	1
0	12141	28.15	0
0	12151	28.2	1
0	12152	28.2	1
0	12153	28.2	0
0	12155	28.2	1
0	12156	28.2	1
0	12157	28.2	0
0	12171	28.25	1
0	12172	28.25	1
0	12173	28.25	0
0	12209	28.3	1
0	12210	28.3	1
0	12211	28.3	0
0	12213	28.3	1
0	12214	28.3	1
0	12215	28.3	0
0	12229	28.35	1
0	12230	28.35	1
0	12231	28.35	0
0	12241	28.4	1
0	12242	28.4	1
0	12243	28.4	0
0	12245	28.4	1
0	12246	28.4	1
0	12247	28.4	0
0	12261	28.45	1
0	12262	28.45	1
0	12263	28.45	0
0	12273	28.5	1
0	12274	28.5	1
0	12275	28.5	0
0	12277	28.5	1
0	12278	28.5	1
0	12279	28.5	0
0	12293	28.55	1
0	12294	28.55	1
0	12295	28.55	0
0	12305	28.6	1
0	12306	28.6	1
0	12307	28.6	0
0	12309	28.6	1
0	12310	28.6	1
0	12311	28.6	0
0	12325	28.65	1
0	12326	28.65	1
0	12327	28.65	0
0	12351	28.7	1
0	12352	28.7	1
0	12353	28.7	0
0	12355	28.7	1
0	12356	28.7	1
0	12357	28.7	0
0	12371	28.75	1
0	12372	28.75	1
0	12373	28.75	0
0	12383	28.8	1
0	12384	28.8	1
0	12385	28.8	0
0	12387	28.8	1
0	12388	28.8	1
0	12389	28.8	0
0	12417	28.85	1
0	12418	28.85	1
0	12419	28.85	0
0	12429	28.9	1
0	12430	28.9	1
0	12431	28.9	0
0	12433	28.9	1
0	12434	28.9	1
0	12435	28.9	0
0	12449	28.95	1
0	12450	28.95	1
0	12451	28.95	0
0	12461	29	1
0	12462	29	1
0	12463	29	0
0	12465	29	1
0	12466	29	1
0	12467	29	0
0	12481	29.05	1
0	12482	29.05	1
0	12483	29.05	0
0	12496	29.1	1
0	12497	29.1	1
0	12498	29.1	0
0	12500	29.1	1
0	12501	29.1	1
0	12502	29.1	0
0	12519	29.15	1
0	12520	29.15	1
0	12521	29.15	0
0	12531	29.2	1
0	12532	29.2	1
0	12533	29.2	0
0	12535	29.2	1
0	12536	29.2	1
0	12537	29.2	0
0	12565	29.25	1
0	12566	29.25	1
0	12567	29.25	0
0	12577	29.3	1
0	12578	29.3	1
0	12579	29.3	0
0	12581	29.3	1
0	12582	29.3	1
0	12583	29.3	0
0	12597	29.35	1
0	12598	29.35	1
0	12599	29.35	0
0	12635	29.4	1
0	12636	29.4	1
0	12637	29.4	0
0	12639	29.4	1
0	12640	29.4	1
0	12641	29.4	0
0	12655	29.45	1
0	12656	29.45	1
0	12657	29.45	0
0	12667	29.5	1
0	12668	29.5	1
0	12669	29.5	0
0	12671	29.5	1
0	12672	29.5	1
0	12673	29.5	0
0	12687	29.55	1
0	12688	29.55	1
0	12689	29.55	0
0	12699	29.6	1
0	12700	29.6	1
0	12701	29.6	0
0	12703	29.6	1
0	12704	29.6	1
0	12705	29.6	0
0	12719	29.65	1
0	12720	29.65	1
0	12721	29.65	0
0	12731	29.7	1
0	12732	29.7	1
0	12733	29.7	0
0	12735	29.7	1
0	12736	29.7	1
0	12737	29.7	0
0	12751	29.75	1
0	12752	29.75	1
0	12753	29.75	0
0	12766	29.8	1
0	12767	29.8	1
0	12768	29.8	0
0	12770	29.8	1
0	12771	29.8	1
0	12772	29.8	0
0	12786	29.85	1
0	12787	29.85	1
0	12788	29.85	0
0	12798	29.9	1
0	12799	29.9	1
0	12800	29.9	0
0	12802	29.9	1
0	12803	29.9	1
0	12804	29.9	0
0	12818	29.95	1
0	12819	29.95	1
0	12820	29.95	0
0	12830	30	1
0	12831	30	1
0	12832	30	0
0	12834	30	1
0	12835	30	1
0	12836	30	0
0	12850	30.05	1
0	12851	30.05	1
0	12852	30.05	0
0	12865	30.1	1
0	12866	30.1	1
0	12867	30.1	0
0	12868	30.1	1
0	12869	30.1	1
0	12870	30.1	0
0	12887	30.15	1
0	12888	30.15	1
0	12889	30.15	0
0	12899	30.2	1
0	12900	30.2	1
0	12901	30.2	0
0	12902	30.2	1
0	12903	30.2	1
0	12904	30.2	0
0	12918	30.25	1
0	12919	30.25	1
0	12920	30.25	0
0	12930	30.3	1
0	12931	30.3	1
0	12932	30.3	0
0	12933	30.3	1
0	12934	30.3	1
0	12935	30.3	0
0	12949	30.35	1
0	12950	30.35	1
0	12951	30.35	0
0	12961	30.4	1
0	12962	30.4	1
0	12963	30.4	0
0	12964	30.4	1
0	12965	30.4	1
0	12966	30.4	0
0	12980	30.45	1
0	12981	30.45	1
0	12982	30.45	0
0	12992	30.5	1
0	12993	30.5	1
0	12994	30.5	0
0	12995	30.5	1
0	12996	30.5	1
0	12997	30.5	0
0	13011	30.55	1
0	13012	30.55	1
0	13013	30.55	0
0	13023	30.6	1
0	13024	30.6	1
0	13025	30.6	0
0	13026	30.6	1
0	13027	30.6	1
0	13028	30.6	0
0	13042	30.65	1
0	13043	30.65	1
0	13044	30.65	0
0	13054	30.7	1
0	13055	30.7	1
0	13056	30.7	0
0	13057	30.7	1
0	13058	30.7	1
0	13059	30.7	0
0	13073	30.75	1
0	13074	30.75	1
0	13075	30.75	0
0	13085	30.8	1
0	13086	30.8	1
0	13087	30.8	0
0	13088	30.8	1
0	13089	30.8	1
0	13090	30.8	0
0	13104	30.85	1
0	13105	30.85	1
0	13106	30.85	0
0	13116	30.9	1
0	13117	30.9	1
0	13118	30.9	0
0	13119	30.9	1
0	13120	30.9	1
0	13121	30.9	0
0	13135	30.95	1
0	13136	30.95	1
0	13137	30.95	0
0	13173	31	1
0	13174	31	1
0	13175	31	0
0	13176	31	1
0	13177	31	1
0	13178	31	0
0	13192	31.05	1
0	13193	31.05	1
0	13194	31.05	0
0	13207	31.1	1
0	13208	31.1	1
0	13209	31.1	0
0	13210	31.1	1
0	13211	31.1	1
0	13212	31.1	0
0	13243	31.15	1
0	13244	31.15	1
0	13245	31.15	0
0	13255	31.2	1
0	13256	31.2	1
0	13257	31.2	0
0	13258	31.2	1
0	13259	31.2	1
0	13260	31.2	0
0	13274	31.25	1
0	13275	31.25	1
0	13276	31.25	0
0	13286	31.3	1
0	13287	31.3	1
0	13288	31.3	0
0	13289	31.3	1
0	13290	31.3	1
0	13291	31.3	0
0	13305	31.35	1
0	13306	31.35	1
0	13307	31.35	0
0	13317	31.4	1
0	13318	31.4	1
0	13319	31.4	0
0	13320	31.4	1
0	13321	31.4	1
0	13322	31.4	0
0	13336	31.45	1
0	13337	31.45	1
0	13338	31.45	0
0	13348	31.5	1
0	13349	31.5	1
0	13350	31.5	0
0	13351	31.5	1
0	13352	31.5	1
0	13353	31.5	0
0	13393	31.55	1
0	13394	31.55	1
0	13395	31.55	0
0	13405	31.6	1
0	13406	31.6	1
0	13407	31.6	0
0	13408	31.6	1
0	13409	31.6	1
0	13410	31.6	0
0	13424	31.65	1
0	13425	31.65	1
0	13426	31.65	0
0	13450	31.7	1
0	13451	31.7	1
0	13452	31.7	0
0	13453	31.7	1
0	13454	31.7	1
0	13455	31.7	0
0	13469	31.75	1
0	13470	31.75	1
0	13471	31.75	0
0	13481	31.8	1
0	13482	31.8	1
0	13483	31.8	0
0	13484	31.8	1
0	13485	31.8	1
0	13486	31.8	0
0	13500	31.85	1
0	13501	31.85	1
0	13502	31.85	0
0	13512	31.9	1
0	13513	31.9	1
0	13514	31.9	0
0	13515	31.9	1
0	13516	31.9	1
0	13517	31.9	0
0	13531	31.95	1
0	13532	31.95	1
0	13533	31.95	0
0	13546	32	1
0	13547	32	1
0	13548	32	0
0	13549	32	1
0	13550	32	1
0	13551	32	0
0	13565	32.05	1
0	13566	32.05	1
0	13567	32.05	0
0	13594	32.1	1
0	13595	32.1	1
0	13596	32.1	0
0	13597	32.1	1
0	13598	32.1	1
0	13599	32.1	0
0	13616	32.15	1
0	13617	32.15	1
0	13618	32.15	0
0	13628	32.2	1
0	13629	32.2	1
0	13630	32.2	0
0	13631	32.2	1
0	13632	32.2	1
0	13633	32.2	0
0	13661	32.25	1
0	13662	32.25	1
0	13663	32.25	0
0	13673	32.3	1
0	13674	32.3	1
0	13675	32.3	0
0	13676	32.3	1
0	13677	32.3	1
0	13678	32.3	0
0	13692	32.35	1
0	13693	32.35	1
0	13694	32.35	0
0	13704	32.4	1
0	13705	32.4	1
0	13706	32.4	0
0	13707	32.4	1
0	13708	32.4	1
0	13709	32.4	0
0	13723	32.45	1
0	13724	32.45	1
0	13725	32.45	0
0	13735	32.5	1
0	13736	32.5	1
0	13737	32.5	0
0	13738	32.5	1
0	13739	32.5	1
0	13740	32.5	0
0	13754	32.55	1
0	13755	32.55	1
0	13756	32.55	0
0	13766	32.6	1
0	13767	32.6	1
0	13768	32.6	0
0	13769	32.6	1
0	13770	32.6	1
0	13771	32.6	0
0	13795	32.65	1
0	13796	32.65	1
0	13797	32.65	0
0	13807	32.7	1
0	13808	32.7	1
0	13809	32.7	0
0	13810	32.7	1
0	13811	32.7	1
0	13812	32.7	0
0	13826	32.75	1
0	13827	32.75	1
0	13828	32.75	0
0	13852	32.8	1
0	13853	32.8	1
0	13854	32.8	0
0	13855	32.8	1
0	13856	32.8	1
0	13857	32.8	0
0	13871	32.85	1
0	13872	32.85	1
0	13873	32.85	0
0	13883	32.9	1
0	13884	32.9	1
0	13885	32.9	0
0	13886	32.9	1
0	13887	32.9	1
0	13888	32.9	0
0	13902	32.95	1
0	13903	32.95	1
0	13904	32.95	0
0	13914	33	1
0	13915	33	1
0	13916	33	0
0	13917	33	1
0	13918	33	1
0	13919	33	0
0	13933	33.05	1
0	13934	33.05	1
0	13935	33.05	0
0	13948	33.1	1
0	13949	33.1	1
0	13950	33.1	0
0	13951	33.1	1
0	13952	33.1	1
0	13953	33.1	0
0	13970	33.15	1
0	13971	33.15	1
0	13972	33.15	0
0	14017	33.2	1
0	14018	33.2	1
0	14019	33.2	0
0	14020	33.2	1
0	14021	33.2	1
0	14022	33.2	0
0	14036	33.25	1
0	14037	33.25	1
0	14038	33.25	0
0	14048	33.3	1
0	14049	33.3	1
0	14050	33.3	0
0	14051	33.3	1
0	14052	33.3	1
0	14053	33.3	0
0	14081	33.35	1
0	14082	33.35	1
0	14083	33.35	0
0	14093	33.4	1
0	14094	33.4	1
0	14095	33.4	0
0	14096	33.4	1
0	14097	33.4	1
0	14098	33.4	0
0	14112	33.45	1
0	14113	33.45	1
0	14114	33.45	0
0	14124	33.5	1
0	14125	33.5	1
0	14126	33.5	0
0	14127	33.5	1
0	14128	33.5	1
0	14129	33.5	0
0	14143	33.55	1
0	14144	33.55	1
0	14145	33.55	0
0	14155	33.6	1
0	14156	33.6	1
0	14157	33.6	0
0	14158	33.6	1
0	14159	33.6	1
0	14160	33.6	0
0	14174	33.65	1
0	14175	33.65	1
0	14176	33.65	0
0	14186	33.7	1
0	14187	33.7	1
0	14188	33.7	0
0	14189	33.7	1
0	14190	33.7	1
0	14191	33.7	0
0	14215	33.75	1
0	14216	33.75	1
0	14217	33.75	0
0	14227	33.8	1
0	14228	33.8	1
0	14229	33.8	0
0	14230	33.8	1
0	14231	33.8	1
0	14232	33.8	0
0	14246	33.85	1
0	14247	33.85	1
0	14248	33.85	0
0	14272	33.9	1
0	14273	33.9	1
0	14274	33.9	0
0	14275	33.9	1
0	14276	33.9	1
0	14277	33.9	0
0	14291	33.95	1
0	14292	33.95	1
0	14293	33.95	0
0	14303	34	1
0	14304	34	1
0	14305	34	0
0	14306	34	1
0	14307	34	1
0	14308	34	0
0	14322	34.05	1
0	14323	34.05	1
0	14324	34.05	0
0	14337	34.1	1
0	14338	34.1	1
0	14339	34.1	0
0	14340	34.1	1
0	14341	34.1	1
0	14342	34.1	0
0	14359	34.15	1
0	14360	34.15	1
0	14361	34.15	0
0	14371	34.2	1
0	14372	34.2	1
0	14373	34.2	0
0	14374	34.2	1
0	14375	34.2	1
0	14376	34.2	0
0	14390	34.25	1
0	14391	34.25	1
0	14392	34.25	0
0	14440	34.3	1
0	14441	34.3	1
0	14442	34.3	0
0	14443	34.3	1
0	14444	34.3	1
0	14445	34.3	0
0	14459	34.35	1
0	14460	34.35	1
0	14461	34.35	0
0	14471	34.4	1
0	14472	34.4	1
0	14473	34.4	0
0	14474	34.4	1
0	14475	34.4	1
0	14476	34.4	0
0	14504	34.45	1
0	14505	34.45	1
0	14506	34.45	0
0	14516	34.5	1
0	14517	34.5	1
0	14518	34.5	0
0	14519	34.5	1
0	14520	34.5	1
0	14521	34.5	0
0	14535	34.55	1
0	14536	34.55	1
0	14537	34.55	0
0	14547	34.6	1
0	14548	34.6	1
0	14549	34.6	0
0	14550	34.6	1
0	14551	34.6	1
0	14552	34.6	0
0	14566	34.65	1
0	14567	34.65	1
0	14568	34.65	0
0	14578	34.7	1
0	14579	34.7	1
0	14580	34.7	0
0	14581	34.7	1
0	14582	34.7	1
0	14583	34.7	0
0	14597	34.75	1
0	14598	34.75	1
0	14599	34.75	0
0	14609	34.8	1
0	14610	34.8	1
0	14611	34.8	0
0	14612	34.8	1
0	14613	34.8	1
0	14614	34.8	0
0	14642	34.85	1
0	14643	34.85	1
0	14644	34.85	0
0	14654	34.9	1
0	14655	34.9	1
0	14656	34.9	0
0	14657	34.9	1
0	14658	34.9	1
0	14659	34.9	0
0	14673	34.95	1
0	14674	34.95	1
0	14675	34.95	0
0	14699	35	1
0	14700	35	1
0	14701	35	0
0	14702	35	1
0	14703	35	1
0	14704	35	0
0	14718	35.05	1
0	14719	35.05	1
0	14720	35.05	0
0	14733	35.1	1
0	14734	35.1	1
0	14735	35.1	0
0	14736	35.1	1
0	14737	35.1	1
0	14738	35.1	0
0	14755	35.15	1
0	14756	35.15	1
0	14757	35.15	0
0	14767	35.2	1
0	14768	35.2	1
0	14769	35.2	0
0	14770	35.2	1
0	14771	35.2	1
0	14772	35.2	0
0	14786	35.25	1
0	14787	35.25	1
0	14788	35.25	0
0	14798	35.3	1
0	14799	35.3	1
0	14800	35.3	0
0	14801	35.3	1
0	14802	35.3	1
0	14803	35.3	0
0	14817	35.35	1
0	14818	35.35	1
0	14819	35.35	0
0	14852	35.4	1
0	14853	35.4	1
0	14854	35.4	0
0	14855	35.4	1
0	14856	35.4	1
0	14857	35.4	0
0	14871	35.45	1
0	14872	35.45	1
0	14873	35.45	0
0	14883	35.5	1
0	14884	35.5	1
0	14885	35.5	0
0	14886	35.5	1
0	14887	35.5	1
0	14888	35.5	0
0	14905	35.55	1
0	14906	35.55	1
0	14907	35.55	0
0	14917	35.6	1
0	14918	35.6	1
0	14919	35.6	0
0	14920	35.6	1
0	14921	35.6	1
0	14922	35.6	0
0	14936	35.65	1
0	14937	35.65	1
0	14938	35.65	0
0	14948	35.7	1
0	14949	35.7	1
0	14950	35.7	0
0	14951	35.7	1
0	14952	35.7	1
0	14953	35.7	0
0	14967	35.75	1
0	14968	35.75	1
0	14969	35.75	0
0	14979	35.8	1
0	14980	35.8	1
0	14981	35.8	0
0	14982	35.8	1
0	14983	35.8	1
0	14984	35.8	0
0	14998	35.85	1
0	14999	35.85	1
0	15000	35.85	0
0	15010	35.9	1
0	15011	35.9	1
0	15012	35.9	0
0	15013	35.9	1
0	15014	35.9	1
0	15015	35.9	0
0	15029	35.95	1
0	15030	35.95	1
0	15031	35.95	0
0	15041	36	1
0	15042	36	1
0	15043	36	0
0	15044	36	1
0	15045	36	1
0	15046	36	0
0	15060	36.05	1
0	15061	36.05	1
0	15062	36.05	0
0	15075	36.1	1
0	15076	36.1	1
0	15077	36.1	0
0	15078	36.1	1
0	15079	36.1	1
0	15080	36.1	0
0	15097	36.15	1
0	15098	36.15	1
0	15099	36.15	0
0	15109	36.2	1
0	15110	36.2	1
0	15111	36.2	0
0	15112	36.2	1
0	15113	36.2	1
0	15114	36.2	0
0	15128	36.25	1
0	15129	36.25	1
0	15130	36.25	0
0	15140	36.3	1
0	15141	36.3	1
0	15142	36.3	0
0	15143	36.3	1
0	15144	36.3	1
0	15145	36.3	0
0	15159	36.35	1
0	15160	36.35	1
0	15161	36.35	0
0	15171	36.4	1
0	15172	36.4	1
0	15173	36.4	0
0	15174	36.4	1
0	15175	36.4	1
0	15176	36.4	0
0	15190	36.45	1
0	15191	36.45	1
0	15192	36.45	0
0	15202	36.5	1
0	15203	36.5	1
0	15204	36.5	0
0	15205	36.5	1
0	15206	36.5	1
0	15207	36.5	0
0	15221	36.55	1
0	15222	36.55	1
0	15223	36.55	0
0	15233	36.6	1
0	15234	36.6	1
0	15235	36.6	0
0	15236	36.6	1
0	15237	36.6	1
0	15238	36.6	0
0	15252	36.65	1
0	15253	36.65	1
0	15254	36.65	0
0	15264	36.7	1
0	15265	36.7	1
0	15266	36.7	0
0	15267	36.7	1
0	15268	36.7	1
0	15269	36.7	0
0	15283	36.75	1
0	15284	36.75	1
0	15285	36.75	0
0	15295	36.8	1
0	15296	36.8	1
0	15297	36.8	0
0	15298	36.8	1
0	15299	36.8	1
0	15300	36.8	0
0	15314	36.85	1
0	15315	36.85	1
0	15316	36.85	0
0	15326	36.9	1
0	15327	36.9	1
0	15328	36.9	0
0	15329	36.9	1
0	15330	36.9	1
0	15331	36.9	0
0	15345	36.95	1
0	15346	36.95	1
0	15347	36.95	0
0	15398	37	1
0	15399	37	1
0	15400	37	0
0	15401	37	1
0	15402	37	1
0	15403	37	0
0	15417	37.05	1
0	15418	37.05	1
0	15419	37.05	0
0	15432	37.1	1
0	15433	37.1	1
0	15434	37.1	0
0	15435	37.1	1
0	15436	37.1	1
0	15437	37.1	0
0	15468	37.15	1
0	15469	37.15	1
0	15470	37.15	0
0	15480	37.2	1
0	15481	37.2	1
0	15482	37.2	0
0	15483	37.2	1
0	15484	37.2	1
0	15485	37.2	0
0	15499	37.25	1
0	15500	37.25	1
0	15501	37.25	0
0	15511	37.3	1
0	15512	37.3	1
0	15513	37.3	0
0	15514	37.3	1
0	15515	37.3	1
0	15516	37.3	0
0	15530	37.35	1
0	15531	37.35	1
0	15532	37.35	0
0	15542	37.4	1
0	15543	37.4	1
0	15544	37.4	0
0	15545	37.4	1
0	15546	37.4	1
0	15547	37.4	0
0	15561	37.45	1
0	15562	37.45	1
0	15563	37.45	0
0	15573	37.5	1
0	15574	37.5	1
0	15575	37.5	0
0	15576	37.5	1
0	15577	37.5	1
0	15578	37.5	0
0	15618	37.55	1
0	15619	37.55	1
0	15620	37.55	0
0	15630	37.6	1
0	15631	37.6	1
0	15632	37.6	0
0	15633	37.6	1
0	15634	37.6	1
0	15635	37.6	0
0	15649	37.65	1
0	15650	37.65	1
0	15651	37.65	0
0	15675	37.7	1
0	15676	37.7	1
0	15677	37.7	0
0	15678	37.7	1
0	15679	37.7	1
0	15680	37.7	0
0	15694	37.75	1
0	15695	37.75	1
0	15696	37.75	0
0	15706	37.8	1
0	15707	37.8	1
0	15708	37.8	0
0	15709	37.8	1
0	15710	37.8	1
0	15711	37.8	0
0	15725	37.85	1
0	15726	37.85	1
0	15727	37.85	0
0	15737	37.9	1
0	15738	37.9	1
0	15739	37.9	0
0	15740	37.9	1
0	15741	37.9	1
0	15742	37.9	0
0	15756	37.95	1
0	15757	37.95	1
0	15758	37.95	0
0	15768	38	1
0	15769	38	1
0	15770	38	0
0	15771	38	1
0	15772	38	1
0	15773	38	0
0	15787	38.05	1
0	15788	38.05	1
0	15789	38.05	0
0	15816	38.1	1
0	15817	38.1	1
0	15818	38.1	0
0	15819	38.1	1
0	15820	38.1	1
0	15821	38.1	0
0	15838	38.15	1
0	15839	38.15	1
0	15840	38.15	0
0	15850	38.2	1
0	15851	38.2	1
0	15852	38.2	0
0	15853	38.2	1
0	15854	38.2	1
0	15855	38.2	0
0	15883	38.25	1
0	15884	38.25	1
0	15885	38.25	0
0	15895	38.3	1
0	15896	38.3	1
0	15897	38.3	0
0	15898	38.3	1
0	15899	38.3	1
0	15900	38.3	0
0	15914	38.35	1
0	15915	38.35	1
0	15916	38.35	0
0	15926	38.4	1
0	15927	38.4	1
0	15928	38.4	0
0	15929	38.4	1
0	15930	38.4	1
0	15931	38.4	0
0	15945	38.45	1
0	15946	38.45	1
0	15947	38.45	0
0	15957	38.5	1
0	15958	38.5	1
0	15959	38.5	0
0	15960	38.5	1
0	15961	38.5	1
0	15962	38.5	0
0	15976	38.55	1
0	15977	38.55	1
0	15978	38.55	0
0	15988	38.6	1
0	15989	38.6	1
0	15990	38.6	0
0	15991	38.6	1
0	15992	38.6	1
0	15993	38.6	0
0	16033	38.65	1
0	16034	38.65	1
0	16035	38.65	0
0	16045	38.7	1
0	16046	38.7	1
0	16047	38.7	0
0	16048	38.7	1
0	16049	38.7	1
0	16050	38.7	0
0	16064	38.75	1
0	16065	38.75	1
0	16066	38.75	0
0	16090	38.8	1
0	16091	38.8	1
0	16092	38.8	0
0	16093	38.8	1
0	16094	38.8	1
0	16095	38.8	0
0	16109	38.85	1
0	16110	38.85	1
0	16111	38.85	0
0	16121	38.9	1
0	16122	38.9	1
0	16123	38.9	0
0	16124	38.9	1
0	16125	38.9	1
0	16126	38.9	0
0	16140	38.95	1
0	16141	38.95	1
0	16142	38.95	0
0	16152	39	1
0	16153	39	1
0	16154	39	0
0	16155	39	1
0	16156	39	1
0	16157	39	0
0	16171	39.05	1
0	16172	39.05	1
0	16173	39.05	0
0	16186	39.1	1
0	16187	39.1	1
0	16188	39.1	0
0	16189	39.1	1
0	16190	39.1	1
0	16191	39.1	0
0	16208	39.15	1
0	16209	39.15	1
0	16210	39.15	0
0	16246	39.2	1
0	16247	39.2	1
0	16248	39.2	0
0	16249	39.2	1
0	16250	39.2	1
0	16251	39.2	0
0	16265	39.25	1
0	16266	39.25	1
0	16267	39.25	0
0	16277	39.3	1
0	16278	39.3	1
0	16279	39.3	0
0	16280	39.3	1
0	16281	39.3	1
0	16282	39.3	0
0	16310	39.35	1
0	16311	39.35	1
0	16312	39.35	0
0	16322	39.4	1
0	16323	39.4	1
0	16324	39.4	0
0	16325	39.4	1
0	16326	39.4	1
0	16327	39.4	0
0	16341	39.45	1
0	16342	39.45	1
0	16343	39.45	0
0	16353	39.5	1
0	16354	39.5	1
0	16355	39.5	0
0	16356	39.5	1
0	16357	39.5	1
0	16358	39.5	0
0	16372	39.55	1
0	16373	39.55	1
0	16374	39.55	0
0	16384	39.6	1
0	16385	39.6	1
0	16386	39.6	0
0	16387	39.6	1
0	16388	39.6	1
0	16389	39.6	0
0	16403	39.65	1
0	16404	39.65	1
0	16405	39.65	0
0	16415	39.7	1
0	16416	39.7	1
0	16417	39.7	0
0	16418	39.7	1
0	16419	39.7	1
0	16420	39.7	0
0	16448	39.75	1
0	16449	39.75	1
0	16450	39.75	0
0	16460	39.8	1
0	16461	39.8	1
0	16462	39.8	0
0	16463	39.8	1
0	16464	39.8	1
0	16465	39.8	0
0	16479	39.85	1
0	16480	39.85	1
0	16481	39.85	0
0	16505	39.9	1
0	16506	39.9	1
0	16507	39.9	0
0	16508	39.9	1
0	16509	39.9	1
0	16510	39.9	0
0	16524	39.95	1
0	16525	39.95	1
0	16526	39.95	0
0	16536	40	1
0	16537	40	1
0	16538	40	0
0	16539	40	1
0	16540	40	1
0	16541	40	0
0	16555	40.05	1
0	16556	40.05	1
0	16557	40.05	0
0	16570	40.1	1
0	16571	40.1	1
0	16572	40.1	0
0	16573	40.1	1
0	16574	40.1	1
0	16575	40.1	0
0	16592	40.15	1
0	16593	40.15	1
0	16594	40.15	0
0	16604	40.2	1
0	16605	40.2	1
0	16606	40.2	0
0	16607	40.2	1
0	16608	40.2	1
0	16609	40.2	0
0	16623	40.25	1
0	16624	40.25	1
0	16625	40.25	0
0	16638	40.3	1
0	16639	40.3	1
0	16640	40.3	0
0	16641	40.3	1
0	16642	40.3	1
0	16643	40.3	0
0	16657	40.35	1
0	16658	40.35	1
0	16659	40.35	0
0	16669	40.4	1
0	16670	40.4	1
0	16671	40.4	0
0	16672	40.4	1
0	16673	40.4	1
0	16674	40.4	0
0	16688	40.45	1
0	16689	40.45	1
0	16690	40.45	0
0	16700	40.5	1
0	16701	40.5	1
0	16702	40.5	0
0	16703	40.5	1
0	16704	40.5	1
0	16705	40.5	0
0	16719	40.55	1
0	16720	40.55	1
0	16721	40.55	0
0	16731	40.6	1
0	16732	40.6	1
0	16733	40.6	0
0	16734	40.6	1
0	16735	40.6	1
0	16736	40.6	0
0	16750	40.65	1
0	16751	40.65	1
0	16752	40.65	0
0	16762	40.7	1
0	16763	40.7	1
0	16764	40.7	0
0	16765	40.7	1
0	16766	40.7	1
0	16767	40.7	0
0	16781	40.75	1
0	16782	40.75	1
0	16783	40.75	0
0	16793	40.8	1
0	16794	40.8	1
0	16795	40.8	0
0	16796	40.8	1
0	16797	40.8	1
0	16798	40.8	0
0	16812	40.85	1
0	16813	40.85	1
0	16814	40.85	0
0	16824	40.9	1
0	16825	40.9	1
0	16826	40.9	0
0	16827	40.9	1
0	16828	40.9	1
0	16829	40.9	0
0	16843	40.95	1
0	16844	40.95	1
0	16845	40.95	0
0	16855	41	1
0	16856	41	1
0	16857	41	0
0	16858	41	1
0	16859	41	1
0	16860	41	0
0	16874	41.05	1
0	16875	41.05	1
0	16876	41.05	0
0	16889	41.1	1
0	16890	41.1	1
0	16891	41.1	0
0	16892	41.1	1
0	16893	41.1	1
0	16894	41.1	0
0	16911	41.15	1
0	16912	41.15	1
0	16913	41.15	0
0	16923	41.2	1
0	16924	41.2	1
0	16925	41.2	0
0	16926	41.2	1
0	16927	41.2	1
0	16928	41.2	0
0	16942	41.25	1
0	16943	41.25	1
0	16944	41.25	0
0	16954	41.3	1
0	16955	41.3	1
0	16956	41.3	0
0	16957	41.3	1
0	16958	41.3	1
0	16959	41.3	0
0	16973	41.35	1
0	16974	41.35	1
0	16975	41.35	0
0	16985	41.4	1
0	16986	41.4	1
0	16987	41.4	0
0	16988	41.4	1
0	16989	41.4	1
0	16990	41.4	0
0	17004	41.45	1
0	17005	41.45	1
0	17006	41.45	0
0	17030	41.5	1
0	17031	41.5	1
0	17032	41.5	0
0	17033	41.5	1
0	17034	41.5	1
0	17035	41.5	0
0	17049	41.55	1
0	17050	41.55	1
0	17051	41.55	0
0	17061	41.6	1
0	17062	41.6	1
0	17063	41.6	0
0	17064	41.6	1
0	17065	41.6	1
0	17066	41.6	0
0	17118	41.65	1
0	17119	41.65	1
0	17120	41.65	0
0	17130	41.7	1
0	17131	41.7	1
0	17132	41.7	0
0	17133	41.7	1
0	17134	41.7	1
0	17135	41.7	0
0	17149	41.75	1
0	17150	41.75	1
0	17151	41.75	0
0	17161	41.8	1
0	17162	41.8	1
0	17163	41.8	0
0	17164	41.8	1
0	17165	41.8	1
0	17166	41.8	0
0	17180	41.85	1
0	17181	41.85	1
0	17182	41.85	0
0	17192	41.9	1
0	17193	41.9	1
0	17194	41.9	0
0	17195	41.9	1
0	17196	41.9	1
0	17197	41.9	0
0	17211	41.95	1
0	17212	41.95	1
0	17213	41.95	0
0	17226	42	1
0	17227	42	1
0	17228	42	0
0	17229	42	1
0	17230	42	1
0	17231	42	0
0	17259	42.05	1
0	17260	42.05	1
0	17261	42.05	0
0	17274	42.1	1
0	17275	42.1	1
0	17276	42.1	0
0	17277	42.1	1
0	17278	42.1	1
0	17279	42.1	0
0	17296	42.15	1
0	17297	42.15	1
0	17298	42.15	0
0	17334	42.2	1
0	17335	42.2	1
0	17336	42.2	0
0	17337	42.2	1
0	17338	42.2	1
0	17339	42.2	0
0	17353	42.25	1
0	17354	42.25	1
0	17355	42.25	0
0	17365	42.3	1
0	17366	42.3	1
0	17367	42.3	0
0	17368	42.3	1
0	17369	42.3	1
0	17370	42.3	0
0	17384	42.35	1
0	17385	42.35	1
0	17386	42.35	0
0	17396	42.4	1
0	17397	42.4	1
0	17398	42.4	0
0	17399	42.4	1
0	17400	42.4	1
0	17401	42.4	0
0	17415	42.45	1
0	17416	42.45	1
0	17417	42.45	0
0	17427	42.5	1
0	17428	42.5	1
0	17429	42.5	0
0	17430	42.5	1
0	17431	42.5	1
0	17432	42.5	0
0	17446	42.55	1
0	17447	42.55	1
0	17448	42.55	0
0	17472	42.6	1
0	17473	42.6	1
0	17474	42.6	0
0	17475	42.6	1
0	17476	42.6	1
0	17477	42.6	0
0	17491	42.65	1
0	17492	42.65	1
0	17493	42.65	0
0	17503	42.7	1
0	17504	42.7	1
0	17505	42.7	0
0	17506	42.7	1
0	17507	42.7	1
0	17508	42.7	0
0	17536	42.75	1
0	17537	42.75	1
0	17538	42.75	0
0	17548	42.8	1
0	17549	42.8	1
0	17550	42.8	0
0	17551	42.8	1
0	17552	42.8	1
0	17553	42.8	0
0	17567	42.85	1
0	17568	42.85	1
0	17569	42.85	0
0	17579	42.9	1
0	17580	42.9	1
0	17581	42.9	0
0	17582	42.9	1
0	17583	42.9	1
0	17584	42.9	0
0	17598	42.95	1
0	17599	42.95	1
0	17600	42.95	0
0	17610	43	1
0	17611	43	1
0	17612	43	0
0	17613	43	1
0	17614	43	1
0	17615	43	0
0	17629	43.05	1
0	17630	43.05	1
0	17631	43.05	0
0	17644	43.1	1
0	17645	43.1	1
0	17646	43.1	0
0	17647	43.1	1
0	17648	43.1	1
0	17649	43.1	0
0	17680	43.15	1
0	17681	43.15	1
0	17682	43.15	0
0	17692	43.2	1
0	17693	43.2	1
0	17694	43.2	0
0	17695	43.2	1
0	17696	43.2	1
0	17697	43.2	0
0	17711	43.25	1
0	17712	43.25	1
0	17713	43.25	0
0	17726	43.3	1
0	17727	43.3	1
0	17728	43.3	0
0	17729	43.3	1
0	17730	43.3	1
0	17731	43.3	0
0	17745	43.35	1
0	17746	43.35	1
0	17747	43.35	0
0	17757	43.4	1
0	17758	43.4	1
0	17759	43.4	0
0	17760	43.4	1
0	17761	43.4	1
0	17762	43.4	0
0	17776	43.45	1
0	17777	43.45	1
0	17778	43.45	0
0	17788	43.5	1
0	17789	43.5	1
0	17790	43.5	0
0	17791	43.5	1
0	17792	43.5	1
0	17793	43.5	0
0	17807	43.55	1
0	17808	43.55	1
0	17809	43.55	0
0	17819	43.6	1
0	17820	43.6	1
0	17821	43.6	0
0	17822	43.6	1
0	17823	43.6	1
0	17824	43.6	0
0	17838	43.65	1
0	17839	43.65	1
0	17840	43.65	0
0	17850	43.7	1
0	17851	43.7	1
0	17852	43.7	0
0	17853	43.7	1
0	17854	43.7	1
0	17855	43.7	0
0	17869	43.75	1
0	17870	43.75	1
0	17871	43.75	0
0	17881	43.8	1
0	17882	43.8	1
0	17883	43.8	0
0	17884	43.8	1
0	17885	43.8	1
0	17886	43.8	0
0	17900	43.85	1
0	17901	43.85	1
0	17902	43.85	0
0	17912	43.9	1
0	17913	43.9	1
0	17914	43.9	0
0	17915	43.9	1
0	17916	43.9	1
0	17917	43.9	0
0	17931	43.95	1
0	17932	43.95	1
0	17933	43.95	0
0	17943	44	1
0	17944	44	1
0	17945	44	0
0	17946	44	1
0	17947	44	1
0	17948	44	0
0	17962	44.05	1
0	17963	44.05	1
0	17964	44.05	0
0	17977	44.1	1
0	17978	44.1	1
0	17979	44.1	0
0	17980	44.1	1
0	17981	44.1	1
0	17982	44.1	0
0	17999	44.15	1
0	18000	44.15	1
0	18001	44.15	0
0	18011	44.2	1
0	18012	44.2	1
0	18013	44.2	0
0	18014	44.2	1
0	18015	44.2	1
0	18016	44.2	0
0	18030	44.25	1
0	18031	44.25	1
0	18032	44.25	0
0	18042	44.3	1
0	18043	44.3	1
0	18044	44.3	0
0	18045	44.3	1
0	18046	44.3	1
0	18047	44.3	0
0	18061	44.35	1
0	18062	44.35	1
0	18063	44.35	0
0	18073	44.4	1
0	18074	44.4	1
0	18075	44.4	0
0	18076	44.4	1
0	18077	44.4	1
0	18078	44.4	0
0	18092	44.45	1
0	18093	44.45	1
0	18094	44.45	0
0	18104	44.5	1
0	18105	44.5	1
0	18106	44.5	0
0	18107	44.5	1
0	18108	44.5	1
0	18109	44.5	0
0	18123	44.55	1
0	18124	44.55	1
0	18125	44.55	0
0	18135	44.6	1
0	18136	44.6	1
0	18137	44.6	0
0	18138	44.6	1
0	18139	44.6	1
0	18140	44.6	0
0	18154	44.65	1
0	18155	44.65	1
0	18156	44.65	0
0	18166	44.7	1
0	18167	44.7	1
0	18168	44.7	0
0	18169	44.7	1
0	18170	44.7	1
0	18171	44.7	0
0	18199	44.75	1
0	18200	44.75	1
0	18201	44.75	0
0	18211	44.8	1
0	18212	44.8	1
0	18213	44.8	0
0	18214	44.8	1
0	18215	44.8	1
0	18216	44.8	0
0	18230	44.85	1
0	18231	44.85	1
0	18232	44.85	0
0	18280	44.9	1
0	18281	44.9	1
0	18282	44.9	0
0	18283	44.9	1
0	18284	44.9	1
0	18285	44.9	0
0	18299	44.95	1
0	18300	44.95	1
0	18301	44.95	0
0	18311	45	1
0	18312	45	1
0	18313	45	0
0	18314	45	1
0	18315	45	1
0	18316	45	0
0	18330	45.05	1
0	18331	45.05	1
0	18332	45.05	0
0	18345	45.1	1
0	18346	45.1	1
0	18347	45.1	0
0	18348	45.1	1
0	18349	45.1	1
0	18350	45.1	0
0	18367	45.15	1
0	18368	45.15	1
0	18369	45.15	0
0	18379	45.2	1
0	18380	45.2	1
0	18381	45.2	0
0	18382	45.2	1
0	18383	45.2	1
0	18384	45.2	0
0	18398	45.25	1
0	18399	45.25	1
0	18400	45.25	0
0	18424	45.3	1
0	18425	45.3	1
0	18426	45.3	0
0	18427	45.3	1
0	18428	45.3	1
0	18429	45.3	0
0	18443	45.35	1
0	18444	45.35	1
0	18445	45.35	0
0	18455	45.4	1
0	18456	45.4	1
0	18457	45.4	0
0	18458	45.4	1
0	18459	45.4	1
0	18460	45.4	0
0	18500	45.45	1
0	18501	45.45	1
0	18502	45.45	0
0	18512	45.5	1
0	18513	45.5	1
0	18514	45.5	0
0	18515	45.5	1
0	18516	45.5	1
0	18517	45.5	0
0	18531	45.55	1
0	18532	45.55	1
0	18533	45.55	0
0	18543	45.6	1
0	18544	45.6	1
0	18545	45.6	0
0	18546	45.6	1
0	18547	45.6	1
0	18548	45.6	0
0	18562	45.65	1
0	18563	45.65	1
0	18564	45.65	0
0	18574	45.7	1
0	18575	45.7	1
0	18576	45.7	0
0	18577	45.7	1
0	18578	45.7	1
0	18579	45.7	0
0	18593	45.75	1
0	18594	45.75	1
0	18595	45.75	0
0	18605	45.8	1
0	18606	45.8	1
0	18607	45.8	0
0	18608	45.8	1
0	18609	45.8	1
0	18610	45.8	0
0	18638	45.85	1
0	18639	45.85	1
0	18640	45.85	0
0	18650	45.9	1
0	18651	45.9	1
0	18652	45.9	0
0	18653	45.9	1
0	18654	45.9	1
0	18655	45.9	0
0	18669	45.95	1
0	18670	45.95	1
0	18671	45.95	0
0	18695	46	1
0	18696	46	1
0	18697	46	0
0	18698	46	1
0	18699	46	1
0	18700	46	0
0	18714	46.05	1
0	18715	46.05	1
0	18716	46.05	0
0	18729	46.1	1
0	18730	46.1	1
0	18731	46.1	0
0	18732	46.1	1
0	18733	46.1	1
0	18734	46.1	0
0	18751	46.15	1
0	18752	46.15	1
0	18753	46.15	0
0	18763	46.2	1
0	18764	46.2	1
0	18765	46.2	0
0	18766	46.2	1
0	18767	46.2	1
0	18768	46.2	0
0	18782	46.25	1
0	18783	46.25	1
0	18784	46.25	0
0	18794	46.3	1
0	18795	46.3	1
0	18796	46.3	0
0	18797	46.3	1
0	18798	46.3	1
0	18799	46.3	0
0	18813	46.35	1
0	18814	46.35	1
0	18815	46.35	0
0	18839	46.4	1
0	18840	46.4	1
0	18841	46.4	0
0	18842	46.4	1
0	18843	46.4	1
0	18844	46.4	0
0	18858	46.45	1
0	18859	46.45	1
0	18860	46.45	0
0	18870	46.5	1
0	18871	46.5	1
0	18872	46.5	0
0	18873	46.5	1
0	18874	46.5	1
0	18875	46.5	0
0	18915	46.55	1
0	18916	46.55	1
0	18917	46.55	0
0	18927	46.6	1
0	18928	46.6	1
0	18929	46.6	0
0	18930	46.6	1
0	18931	46.6	1
0	18932	46.6	0
0	18946	46.65	1
0	18947	46.65	1
0	18948	46.65	0
0	18958	46.7	1
0	18959	46.7	1
0	18960	46.7	0
0	18961	46.7	1
0	18962	46.7	1
0	18963	46.7	0
0	18977	46.75	1
0	18978	46.75	1
0	18979	46.75	0
0	18989	46.8	1
0	18990	46.8	1
0	18991	46.8	0
0	18992	46.8	1
0	18993	46.8	1
0	18994	46.8	0
0	19008	46.85	1
0	19009	46.85	1
0	19010	46.85	0
0	19020	46.9	1
0	19021	46.9	1
0	19022	46.9	0
0	19023	46.9	1
0	19024	46.9	1
0	19025	46.9	0
0	19053	46.95	1
0	19054	46.95	1
0	19055	46.95	0
0	19068	47	1
0	19069	47	1
0	19070	47	0
0	19071	47	1
0	19072	47	1
0	19073	47	0
0	19087	47.05	1
0	19088	47.05	1
0	19089	47.05	0
0	19116	47.1	1
0	19117	47.1	1
0	19118	47.1	0
0	19119	47.1	1
0	19120	47.1	1
0	19121	47.1	0
0	19138	47.15	1
0	19139	47.15	1
0	19140	47.15	0
0	19150	47.2	1
0	19151	47.2	1
0	19152	47.2	0
0	19153	47.2	1
0	19154	47.2	1
0	19155	47.2	0
0	19169	47.25	1
0	19170	47.25	1
0	19171	47.25	0
0	19181	47.3	1
0	19182	47.3	1
0	19183	47.3	0
0	19184	47.3	1
0	19185	47.3	1
0	19186	47.3	0
0	19200	47.35	1
0	19201	47.35	1
0	19202	47.35	0
0	19212	47.4	1
0	19213	47.4	1
0	19214	47.4	0
0	19215	47.4	1
0	19216	47.4	1
0	19217	47.4	0
0	19231	47.45	1
0	19232	47.45	1
0	19233	47.45	0
0	19257	47.5	1
0	19258	47.5	1
0	19259	47.5	0
0	19260	47.5	1
0	19261	47.5	1
0	19262	47.5	0
0	19276	47.55	1
0	19277	47.55	1
0	19278	47.55	0
0	19288	47.6	1
0	19289	47.6	1
0	19290	47.6	0
0	19291	47.6	1
0	19292	47.6	1
0	19293	47.6	0
0	19333	47.65	1
0	19334	47.65	1
0	19335	47.65	0
0	19345	47.7	1
0	19346	47.7	1
0	19347	47.7	0
0	19348	47.7	1
0	19349	47.7	1
0	19350	47.7	0
0	19364	47.75	1
0	19365	47.75	1
0	19366	47.75	0
0	19376	47.8	1
0	19377	47.8	1
0	19378	47.8	0
0	19379	47.8	1
0	19380	47.8	1
0	19381	47.8	0
0	19395	47.85	1
0	19396	47.85	1
0	19397	47.85	0
0	19407	47.9	1
0	19408	47.9	1
0	19409	47.9	0
0	19410	47.9	1
0	19411	47.9	1
0	19412	47.9	0
0	19426	47.95	1
0	19427	47.95	1
0	19428	47.95	0
0	19438	48	1
0	19439	48	1
0	19440	48	0
0	19441	48	1
0	19442	48	1
0	19443	48	0
0	19471	48.05	1
0	19472	48.05	1
0	19473	48.05	0
0	19486	48.1	1
0	19487	48.1	1
0	19488	48.1	0
0	19489	48.1	1
0	19490	48.1	1
0	19491	48.1	0
0	19508	48.15	1
0	19509	48.15	1
0	19510	48.15	0
0	19546	48.2	1
0	19547	48.2	1
0	19548	48.2	0
0	19549	48.2	1
0	19550	48.2	1
0	19551	48.2	0
0	19565	48.25	1
0	19566	48.25	1
0	19567	48.25	0
0	19577	48.3	1
0	19578	48.3	1
0	19579	48.3	0
0	19580	48.3	1
0	19581	48.3	1
0	19582	48.3	0
0	19596	48.35	1
0	19597	48.35	1
0	19598	48.35	0
0	19608	48.4	1
0	19609	48.4	1
0	19610	48.4	0
0	19611	48.4	1
0	19612	48.4	1
0	19613	48.4	0
0	19627	48.45	1
0	19628	48.45	1
0	19629	48.45	0
0	19639	48.5	1
0	19640	48.5	1
0	19641	48.5	0
0	19642	48.5	1
0	19643	48.5	1
0	19644	48.5	0
0	19658	48.55	1
0	19659	48.55	1
0	19660	48.55	0
0	19684	48.6	1
0	19685	48.6	1
0	19686	48.6	0
0	19687	48.6	1
0	19688	48.6	1
0	19689	48.6	0
0	19703	48.65	1
0	19704	48.65	1
0	19705	48.65	0
0	19715	48.7	1
0	19716	48.7	1
0	19717	48.7	0
0	19718	48.7	1
0	19719	48.7	1
0	19720	48.7	0
0	19748	48.75	1
0	19749	48.75	1
0	19750	48.75	0
0	19760	48.8	1
0	19761	48.8	1
0	19762	48.8	0
0	19763	48.8	1
0	19764	48.8	1
0	19765	48.8	0
0	19779	48.85	1
0	19780	48.85	1
0	19781	48.85	0
0	19791	48.9	1
0	19792	48.9	1
0	19793	48.9	0
0	19794	48.9	1
0	19795	48.9	1
0	19796	48.9	0
0	19810	48.95	1
0	19811	48.95	1
0	19812	48.95	0
0	19822	49	1
0	19823	49	1
0	19824	49	0
0	19825	49	1
0	19826	49	1
0	19827	49	0
0	19841	49.05	1
0	19842	49.05	1
0	19843	49.05	0
0	19856	49.1	1
0	19857	49.1	1
0	19858	49.1	0
0	19859	49.1	1
0	19860	49.1	1
0	19861	49.1	0
0	19892	49.15	1
0	19893	49.15	1
0	19894	49.15	0
0	19904	49.2	1
0	19905	49.2	1
0	19906	49.2	0
0	19907	49.2	1
0	19908	49.2	1
0	19909	49.2	0
0	19923	49.25	1
0	19924	49.25	1
0	19925	49.25	0
0	19961	49.3	1
0	19962	49.3	1
0	19963	49.3	0
0	19964	49.3	1
0	19965	49.3	1
0	19966	49.3	0
0	19980	49.35	1
0	19981	49.35	1
0	19982	49.35	0
0	19992	49.4	1
0	19993	49.4	1
0	19994	49.4	0
0	19995	49.4	1
0	19996	49.4	1
0	19997	49.4	0
0	20011	49.45	1
0	20012	49.45	1
0	20013	49.45	0
0	20023	49.5	1
0	20024	49.5	1
0	20025	49.5	0
0	20026	49.5	1
0	20027	49.5	1
0	20028	49.5	0
0	20042	49.55	1
0	20043	49.55	1
0	20044	49.55	0
0	20054	49.6	1
0	20055	49.6	1
0	20056	49.6	0
0	20057	49.6	1
0	20058	49.6	1
0	20059	49.6	0
0	20073	49.65	1
0	20074	49.65	1
0	20075	49.65	0
0	20099	49.7	1
0	20100	49.7	1
0	20101	49.7	0
0	20102	49.7	1
0	20103	49.7	1
0	20104	49.7	0
0	20118	49.75	1
0	20119	49.75	1
0	20120	49.75	0
0	20130	49.8	1
0	20131	49.8	1
0	20132	49.8	0
0	20133	49.8	1
0	20134	49.8	1
0	20135	49.8	0
0	20163	49.85	1
0	20164	49.85	1
0	20165	49.85	0
0	20175	49.9	1
0	20176	49.9	1
0	20177	49.9	0
0	20178	49.9	1
0	20179	49.9	1
0	20180	49.9	0
0	20194	49.95	1
0	20195	49.95	1
0	20196	49.95	0
0	20206	50	1
0	20207	50	1
0	20208	50	0
0	20209	50	1
0	20210	50	1
0	20211	50	0
1	22	0.1	-nan
1	24	0.1	-nan
1	26	0.1	-nan
1	368	1.1	-nan
1	369	1.1	-nan
1	370	1.1	-nan
1	826	2.1	-nan
1	827	2.1	-nan
1	828	2.1	-nan
1	1284	3.1	-nan
1	1285	3.1	-nan
1	1286	3.1	-nan
1	1738	4.1	-nan
1	1739	4.1	-nan
1	1740	4.1	-nan
1	2188	5.1	-nan
1	2189	5.1	-nan
1	2190	5.1	-nan
1	2627	6.1	-nan
1	2628	6.1	-nan
1	2629	6.1	-nan
1	3202	7.1	-nan
1	3203	7.1	-nan
1	3204	7.1	-nan
1	3692	8.1	-nan
1	3693	8.1	-nan
1	3694	8.1	-nan
1	4149	9.1	-nan
1	4150	9.1	-nan
1	4151	9.1	-nan
1	4629	10.1	-nan
1	4630	10.1	-nan
1	4631	10.1	-nan
1	5083	11.1	-nan
1	5084	11.1	-nan
1	5085	11.1	-nan
1	5489	12.1	-nan
1	5490	12.1	-nan
1	5491	12.1	-nan
1	5979	13.1	-nan
1	5980	13.1	-nan
1	5981	13.1	-nan
1	6432	14.1	-nan
1	6433	14.1	-nan
1	6434	14.1	-nan
1	6855	15.1	-nan
1	6856	15.1	-nan
1	6857	15.1	-nan
1	7335	16.1	-nan
1	7336	16.1	-nan
1	7337	16.1	-nan
1	7767	17.1	-nan
1	7768	17.1	-nan
1	7769	17.1	-nan
1	8167	18.1	-nan
1	8168	18.1	-nan
1	8169	18.1	-nan
1	8605	19.1	-nan
1	8606	19.1	-nan
1	8607	19.1	-nan
1	9046	20.1	-nan
1	9047	20.1	-nan
1	9048	20.1	-nan
1	9442	21.1	-nan
1	9443	21.1	-nan
1	9444	21.1	-nan
1	9825	22.1	-nan
1	9826	22.1	-nan
1	9827	22.1	-nan
1	10222	23.1	-nan
1	10223	23.1	-nan
1	10224	23.1	-nan
1	10593	24.1	-nan
1	10594	24.1	-nan
1	10595	24.1	-nan
1	10922	25.1	-nan
1	10923	25.1	-nan
1	10924	25.1	-nan
1	11336	26.1	-nan
1	11337	26.1	-nan
1	11338	26.1	-nan
1	11719	27.1	-nan
1	11720	27.1	-nan
1	11721	27.1	-nan
1	12099	28.1	-nan
1	12100	28.1	-nan
1	12101	28.1	-nan
1	12493	29.1	-nan
1	12494	29.1	-nan
1	12495	29.1	-nan
1	12862	30.1	-nan
1	12863	30.1	-nan
1	12864	30.1	-nan
1	13204	31.1	-nan
1	13205	31.1	-nan
1	13206	31.1	-nan
1	13591	32.1	-nan
1	13592	32.1	-nan
1	13593	32.1	-nan
1	13945	33.1	-nan
1	13946	33.1	-nan
1	13947	33.1	-nan
1	14334	34.1	-nan
1	14335	34.1	-nan
1	14336	34.1	-nan
1	14730	35.1	-nan
1	14731	35.1	-nan
1	14732	35.1	-nan
1	15072	36.1	-nan
1	15073	36.1	-nan
1	15074	36.1	-nan
1	15429	37.1	-nan
1	15430	37.1	-nan
1	15431	37.1	-nan
1	15813	38.1	-nan
1	15814	38.1	-nan
1	15815	38.1	-nan
1	16183	39.1	-nan
1	16184	39.1	-nan
1	16185	39.1	-nan
1	16567	40.1	-nan
1	16568	40.1	-nan
1	16569	40.1	-nan
1	16886	41.1	-nan
1	16887	41.1	-nan
1	16888	41.1	-nan
1	17271	42.1	-nan
1	17272	42.1	-nan
1	17273	42.1	-nan
1	17641	43.1	-nan
1	17642	43.1	-nan
1	17643	43.1	-nan
1	17974	44.1	-nan
1	17975	44.1	-nan
1	17976	44.1	-nan
1	18342	45.1	-nan
1	18343	45.1	-nan
1	18344	45.1	-nan
1	18726	46.1	-nan
1	18727	46.1	-nan
1	18728	46.1	-nan
1	19113	47.1	-nan
1	19114	47.1	-nan
1	19115	47.1	-nan
1	19483	48.1	-nan
1	19484	48.1	-nan
1	19485	48.1	-nan
1	19853	49.1	-nan
1	19854	49.1	-nan
1	19855	49.1	-nan
2	2901	6.628453385287	141
2	2911	6.633093385287	282
2	2921	6.642293385287	423
2	2931	6.646933385287	564
2	2950	6.656133385287	705
2	2960	6.660773385287	846
2	2970	6.669973385287	987
2	2980	6.674613385287	1128
2	2990	6.683813385287	1269
2	3001	6.697653385287	1410
2	3033	6.702293385287	1551
2	3043	6.711493385287	1692
2	3050	6.716133385287	1833
2	3283	7.178453385287	1974
2	3293	7.183093385287	2115
2	3303	7.192293385287	2256
2	3313	7.196933385287	2397
2	3342	7.210773385287	2538
2	3785	8.278453385287	2679
2	4141	9.078453385287	2820
2	4276	9.378453385287	2961
2	4422	9.628453385287	3102
2	4432	9.642293385287	3243
2	4688	10.178453385287	3384
2	4816	10.478453385287	3525
2	5295	11.578453385287	3666
2	5536	12.128453385287	3807
2	5646	12.328453385287	3948
2	5656	12.342293385287	4089
2	6152	13.428453385287	4230
2	6306	13.778453385287	4371
2	6629	14.528453385287	4512
2	6848	15.078461549862	4653
2	6998	15.378453385287	4794
2	7008	15.392293385287	4935
2	7138	15.628533391807	5076
2	7394	16.178612766001	5217
2	7525	16.478453385287	5358
2	8216	18.128453385287	5499
2	8223	18.142293385287	5640
2	8448	18.678453385287	5781
2	8686	19.228453385287	5922
2	9161	20.328453385287	6063
2	9583	21.428453385287	6204
2	10215	23.078453385287	6345
2	11109	25.528453385287	6486
2	11119	25.542293385287	6627
2	11141	25.556133385287	6768
2	11555	26.628453385287	6909
2	11776	27.178453385287	7050
2	12202	28.278453385287	7191
2	12628	29.378453385287	7332
2	13166	30.978453385287	7473
2	13386	31.528453385287	7614
2	14003	33.178453385287	7755
2	14010	33.192293385287	7896
2	14423	34.278453385287	8037
2	14433	34.292293385287	8178
2	14848	35.378453385287	8319
2	15378	36.978453385287	8460
2	15388	36.992293385287	8601
2	15611	37.528453385287	8742
2	16026	38.628453385287	8883
2	16239	39.178453385287	9024
2	17101	41.628453385287	9165
2	17111	41.642293385287	9306
2	17327	42.178453385287	9447
2	18263	44.878453385287	9588
2	18273	44.892293385287	9729
2	18493	45.428453385287	9870
2	18908	46.528453385287	10011
2	19326	47.628453385287	10152
2	19539	48.178453385287	10293
2	19954	49.278453385287	10434
3	2901	6.628453385287	141
3	2911	6.633093385287	282
3	2921	6.642293385287	423
3	2931	6.646933385287	564
3	2950	6.656133385287	705
3	2960	6.660773385287	846
3	2970	6.669973385287	987
3	2980	6.674613385287	1128
3	2990	6.683813385287	1269
3	3001	6.697653385287	1410
3	3033	6.702293385287	1551
3	3043	6.711493385287	1692
3	3050	6.716133385287	1833
3	3283	7.178453385287	1974
3	3293	7.183093385287	2115
3	3303	7.192293385287	2256
3	3313	7.196933385287	2397
3	3342	7.210773385287	2538
3	3785	8.278453385287	2679
3	4141	9.078453385287	2820
3	4276	9.378453385287	2961
3	4422	9.628453385287	3102
3	4432	9.642293385287	3243
3	4688	10.178453385287	3384
3	4816	10.478453385287	3525
3	5295	11.578453385287	3666
3	5536	12.128453385287	3807
3	5646	12.328453385287	3948
3	5656	12.342293385287	4089
3	6152	13.428453385287	4230
3	6306	13.778453385287	4371
3	6629	14.528453385287	4512
3	6848	15.078461549862	4653
3	6998	15.378453385287	4794
3	7008	15.392293385287	4935
3	7138	15.628533391807	5076
3	7394	16.178612766001	5217
3	7525	16.478453385287	5358
3	8216	18.128453385287	5499
3	8223	18.142293385287	5640
3	8448	18.678453385287	5781
3	8686	19.228453385287	5922
3	9161	20.328453385287	6063
3	9583	21.428453385287	6204
3	10215	23.078453385287	6345
3	11109	25.528453385287	6486
3	11119	25.542293385287	6627
3	11141	25.556133385287	6768
3	11555	26.628453385287	6909
3	11776	27.178453385287	7050
3	12202	28.278453385287	7191
3	12628	29.378453385287	7332
3	13166	30.978453385287	7473
3	13386	31.528453385287	7614
3	14003	33.178453385287	7755
3	14010	33.192293385287	7896
3	14423	34.278453385287	8037
3	14433	34.292293385287	8178
3	14848	35.378453385287	8319
3	15378	36.978453385287	8460
3	15388	36.992293385287	8601
3	15611	37.528453385287	8742
3	16026	38.628453385287	8883
3	16239	39.178453385287	9024
3	17101	41.628453385287	9165
3	17111	41.642293385287	9306
3	17327	42.178453385287	9447
3	18263	44.878453385287	9588
3	18273	44.892293385287	9729
3	18493	45.428453385287	9870
3	18908	46.528453385287	10011
3	19326	47.628453385287	10152
3	19539	48.178453385287	10293
3	19954	49.278453385287	10434

