version 2
run C_08_10-0-20191012-19:07:14-5142
attr configname C_08_10
attr datetime 20191012-19:07:14
attr experiment C_08_10
attr inifile SimV3.ini
attr iterationvars ""
attr iterationvarsf ""
attr measurement ""
attr network NetworkTormV2
attr processid 5142
attr repetition 0
attr replication #0
attr resultdir results
attr runnumber 0
attr seedset 0
param **.mobility.traceFile "\"pathsGW/C.movements\""
param **.numNodes 11
param **.application.dataGenerationInterval 1s
param **.application.dataSizeInBytes 10
param **.application.ttl 999999s
param **application.nodesThatGen false
param **application.nodesGenMsg "\"\""
param **application.startMultipleMsg false
param **application.numMultipleMsg 100
param **application.hopsListSize 50
param **.application.endGeneratingMsg 99s
param **.routingLayer "\"RoutingLqeGw\""
param **.routing.maximumCacheSize 5000byte
param **.routing.maximumHopCount 25
param **.routing.useTTL false
param **.routing.waitBFsend 0.5
param **.routing.max_age 999999s
param **.routing.gateway_list "\"\""
param **.routing.actual_gateway "\"\""
param **.routing.gwCheckPeriod 5s
param **.neighboring.resetGPeriod 10s
param **.wirelessIfc.wirelessRange 40m
param **.numNodes 2
param **.application.usedRNG 1
param **.application.dataGenerationInterval 1s
param **.application.dataSizeInBytes 10
param **.application.ttl 999999s
param **application.destinationAddr "\"Wf:00:00:00:00:02\""
param **application.destinationBTAddr "\"Bt:00:00:00:00:02\""
param **application.nodesThatGen true
param **application.nodesGenMsg "\"0\""
param **application.startMultipleMsg true
param **application.numMultipleMsg 100
param **application.hopsListSize 50
param **.application.endGeneratingMsg 999999s
param **.routingLayer "\"RoutingLqeGw\""
param **.routing.maximumCacheSize 5000byte
param **.routing.maximumHopCount 25
param **.routing.useTTL false
param **.routing.waitBFsend 0.5
param **.routing.max_age 999999s
param **.routing.gateway_list "\"\""
param **.routing.actual_gateway "\"\""
param **.routing.gwCheckPeriod 5s
param **.neighboring.antiEntropyInterval 500ms
param **.neighboring.maximumRandomBackoffDuration 1s
param **.neighboring.delayPerDataMsg 0.1
param **neighboring.usedRNG 2
param **.neighboring.GWAddr "\"Wf:00:00:00:00:02\""
param **.neighboring.sendWifiFirst true
param **.neighboring.maxLengthGraph 20
param **.neighboring.max_age 999999s
param **.neighboring.max_absent_time 1s
param **.wirelessIfc.wirelessRange 40m
param **.wirelessIfc.neighbourScanInterval 50ms
param **.wirelessIfc.bandwidthBitRate 100000bps
param **.wirelessIfc.wirelessHeaderSize 32byte
param **.wirelessIfc.minSSI -90
param **.wirelessIfc.limitQueueTime 400ms
param **.wirelessIfc.my_limit_rate 0bps
param **.bluetoothIfc.wirelessRange 40m
param **.bluetoothIfc.neighbourScanInterval 100ms
param **.bluetoothIfc.bandwidthBitRate 100000bps
param **.bluetoothIfc.wirelessHeaderSize 16byte
param **.bluetoothIfc.minSSI -90
param **.mobilityType "\"BonnMotionMobility\""
param **.mobility.traceFile "\"paths/Moves2.movements\""
param **.mobility.is3D false
param **.mobility.nodeId -1

vector 0 NetworkTormV2 neighbourhoodSize:vector ETV
attr source neighbourhoodSize
vector 1 NetworkTormV2 deliveryRatio:vector ETV
attr source sum(totalDataBytesReceived)/sum(totalDataBytesReceivableByAllNodes)
vector 2 NetworkTormV2 dataBytesReceivedSum:vector ETV
attr source sum(dataBytesReceived)
vector 3 NetworkTormV2 totalBytesReceivedSum:vector ETV
attr source sum(totalBytesReceived)
0	34	0.05	3
0	35	0.05	5
0	36	0.05	3
0	37	0.05	5
0	38	0.05	8
0	39	0.05	5
0	40	0.05	3
0	41	0.05	5
0	42	0.05	3
0	43	0.05	1
0	44	0.05	1
0	134	0.1	3
0	136	0.1	5
0	138	0.1	3
0	140	0.1	5
0	142	0.1	8
0	144	0.1	5
0	146	0.1	3
0	148	0.1	5
0	150	0.1	3
0	152	0.1	1
0	154	0.1	1
0	156	0.1	3
0	157	0.1	5
0	158	0.1	3
0	159	0.1	5
0	160	0.1	8
0	161	0.1	5
0	162	0.1	3
0	163	0.1	5
0	164	0.1	3
0	165	0.1	1
0	166	0.1	1
0	288	0.15	3
0	289	0.15	5
0	290	0.15	3
0	291	0.15	5
0	292	0.15	8
0	293	0.15	5
0	294	0.15	3
0	295	0.15	5
0	296	0.15	3
0	297	0.15	1
0	298	0.15	1
0	387	0.2	3
0	388	0.2	5
0	389	0.2	3
0	390	0.2	5
0	391	0.2	8
0	392	0.2	5
0	393	0.2	3
0	394	0.2	5
0	395	0.2	3
0	396	0.2	1
0	397	0.2	1
0	399	0.2	3
0	400	0.2	5
0	401	0.2	3
0	402	0.2	5
0	403	0.2	8
0	404	0.2	5
0	405	0.2	3
0	406	0.2	5
0	407	0.2	3
0	408	0.2	1
0	409	0.2	1
0	520	0.25	3
0	521	0.25	5
0	522	0.25	3
0	523	0.25	5
0	524	0.25	8
0	525	0.25	5
0	526	0.25	3
0	527	0.25	5
0	528	0.25	3
0	529	0.25	1
0	530	0.25	1
0	619	0.3	3
0	620	0.3	5
0	621	0.3	3
0	622	0.3	5
0	623	0.3	8
0	624	0.3	5
0	625	0.3	3
0	626	0.3	5
0	627	0.3	3
0	628	0.3	1
0	629	0.3	1
0	631	0.3	3
0	632	0.3	5
0	633	0.3	3
0	634	0.3	5
0	635	0.3	8
0	636	0.3	5
0	637	0.3	3
0	638	0.3	5
0	639	0.3	3
0	640	0.3	1
0	641	0.3	1
0	752	0.35	3
0	753	0.35	5
0	754	0.35	3
0	755	0.35	5
0	756	0.35	8
0	757	0.35	5
0	758	0.35	3
0	759	0.35	5
0	760	0.35	3
0	761	0.35	1
0	762	0.35	1
0	851	0.4	3
0	852	0.4	5
0	853	0.4	3
0	854	0.4	5
0	855	0.4	8
0	856	0.4	5
0	857	0.4	3
0	858	0.4	5
0	859	0.4	3
0	860	0.4	1
0	861	0.4	1
0	863	0.4	3
0	864	0.4	5
0	865	0.4	3
0	866	0.4	5
0	867	0.4	8
0	868	0.4	5
0	869	0.4	3
0	870	0.4	5
0	871	0.4	3
0	872	0.4	1
0	873	0.4	1
0	984	0.45	3
0	985	0.45	5
0	986	0.45	3
0	987	0.45	5
0	988	0.45	8
0	989	0.45	5
0	990	0.45	3
0	991	0.45	5
0	992	0.45	3
0	993	0.45	1
0	994	0.45	1
0	1083	0.5	3
0	1084	0.5	5
0	1085	0.5	3
0	1086	0.5	5
0	1087	0.5	8
0	1088	0.5	5
0	1089	0.5	3
0	1090	0.5	5
0	1091	0.5	3
0	1092	0.5	1
0	1093	0.5	1
0	1095	0.5	3
0	1096	0.5	5
0	1097	0.5	3
0	1098	0.5	5
0	1099	0.5	8
0	1100	0.5	5
0	1101	0.5	3
0	1102	0.5	5
0	1103	0.5	3
0	1104	0.5	1
0	1105	0.5	1
0	1216	0.55	3
0	1217	0.55	5
0	1218	0.55	3
0	1219	0.55	5
0	1220	0.55	8
0	1221	0.55	5
0	1222	0.55	3
0	1223	0.55	5
0	1224	0.55	3
0	1225	0.55	1
0	1226	0.55	1
0	1315	0.6	3
0	1316	0.6	5
0	1317	0.6	3
0	1318	0.6	5
0	1319	0.6	8
0	1320	0.6	5
0	1321	0.6	3
0	1322	0.6	5
0	1323	0.6	3
0	1324	0.6	1
0	1325	0.6	1
0	1327	0.6	3
0	1328	0.6	5
0	1329	0.6	3
0	1330	0.6	5
0	1331	0.6	8
0	1332	0.6	5
0	1333	0.6	3
0	1334	0.6	5
0	1335	0.6	3
0	1336	0.6	1
0	1337	0.6	1
0	1448	0.65	3
0	1449	0.65	5
0	1450	0.65	3
0	1451	0.65	5
0	1452	0.65	8
0	1453	0.65	5
0	1454	0.65	3
0	1455	0.65	5
0	1456	0.65	3
0	1457	0.65	1
0	1458	0.65	1
0	1547	0.7	3
0	1548	0.7	5
0	1549	0.7	3
0	1550	0.7	5
0	1551	0.7	8
0	1552	0.7	5
0	1553	0.7	3
0	1554	0.7	5
0	1555	0.7	3
0	1556	0.7	1
0	1557	0.7	1
0	1559	0.7	3
0	1560	0.7	5
0	1561	0.7	3
0	1562	0.7	5
0	1563	0.7	8
0	1564	0.7	5
0	1565	0.7	3
0	1566	0.7	5
0	1567	0.7	3
0	1568	0.7	1
0	1569	0.7	1
0	1680	0.75	3
0	1681	0.75	5
0	1682	0.75	3
0	1683	0.75	5
0	1684	0.75	8
0	1685	0.75	5
0	1686	0.75	3
0	1687	0.75	5
0	1688	0.75	3
0	1689	0.75	1
0	1690	0.75	1
0	1779	0.8	3
0	1780	0.8	5
0	1781	0.8	3
0	1782	0.8	5
0	1783	0.8	8
0	1784	0.8	5
0	1785	0.8	3
0	1786	0.8	5
0	1787	0.8	3
0	1788	0.8	1
0	1789	0.8	1
0	1791	0.8	3
0	1792	0.8	5
0	1793	0.8	3
0	1794	0.8	5
0	1795	0.8	8
0	1796	0.8	5
0	1797	0.8	3
0	1798	0.8	5
0	1799	0.8	3
0	1800	0.8	1
0	1801	0.8	1
0	1912	0.85	3
0	1913	0.85	5
0	1914	0.85	3
0	1915	0.85	5
0	1916	0.85	8
0	1917	0.85	5
0	1918	0.85	3
0	1919	0.85	5
0	1920	0.85	3
0	1921	0.85	1
0	1922	0.85	1
0	2011	0.9	3
0	2012	0.9	5
0	2013	0.9	3
0	2014	0.9	5
0	2015	0.9	8
0	2016	0.9	5
0	2017	0.9	3
0	2018	0.9	5
0	2019	0.9	3
0	2020	0.9	1
0	2021	0.9	1
0	2023	0.9	3
0	2024	0.9	5
0	2025	0.9	3
0	2026	0.9	5
0	2027	0.9	8
0	2028	0.9	5
0	2029	0.9	3
0	2030	0.9	5
0	2031	0.9	3
0	2032	0.9	1
0	2033	0.9	1
0	2144	0.95	3
0	2145	0.95	5
0	2146	0.95	3
0	2147	0.95	5
0	2148	0.95	8
0	2149	0.95	5
0	2150	0.95	3
0	2151	0.95	5
0	2152	0.95	3
0	2153	0.95	1
0	2154	0.95	1
0	2243	1	3
0	2244	1	5
0	2245	1	3
0	2246	1	5
0	2247	1	8
0	2248	1	5
0	2249	1	3
0	2250	1	5
0	2251	1	3
0	2252	1	1
0	2253	1	1
0	2255	1	3
0	2256	1	5
0	2257	1	3
0	2258	1	5
0	2259	1	8
0	2260	1	5
0	2261	1	3
0	2262	1	5
0	2263	1	3
0	2264	1	1
0	2265	1	1
0	2376	1.05	3
0	2377	1.05	5
0	2378	1.05	3
0	2379	1.05	5
0	2380	1.05	8
0	2381	1.05	5
0	2382	1.05	3
0	2383	1.05	5
0	2384	1.05	3
0	2385	1.05	1
0	2386	1.05	1
0	2486	1.1	3
0	2487	1.1	5
0	2488	1.1	3
0	2489	1.1	5
0	2490	1.1	8
0	2491	1.1	5
0	2492	1.1	3
0	2493	1.1	5
0	2494	1.1	3
0	2495	1.1	1
0	2496	1.1	1
0	2498	1.1	3
0	2499	1.1	5
0	2500	1.1	3
0	2501	1.1	5
0	2502	1.1	8
0	2503	1.1	5
0	2504	1.1	3
0	2505	1.1	5
0	2506	1.1	3
0	2507	1.1	1
0	2508	1.1	1
0	3080	1.15	3
0	3081	1.15	5
0	3082	1.15	3
0	3083	1.15	5
0	3084	1.15	8
0	3085	1.15	5
0	3086	1.15	3
0	3087	1.15	5
0	3088	1.15	3
0	3089	1.15	1
0	3090	1.15	1
0	3497	1.2	3
0	3498	1.2	5
0	3499	1.2	3
0	3500	1.2	5
0	3501	1.2	8
0	3502	1.2	5
0	3503	1.2	3
0	3504	1.2	5
0	3505	1.2	3
0	3506	1.2	1
0	3507	1.2	1
0	3509	1.2	3
0	3510	1.2	5
0	3511	1.2	3
0	3512	1.2	5
0	3513	1.2	8
0	3514	1.2	5
0	3515	1.2	3
0	3516	1.2	5
0	3517	1.2	3
0	3518	1.2	1
0	3519	1.2	1
0	3714	1.25	3
0	3715	1.25	5
0	3716	1.25	3
0	3717	1.25	5
0	3718	1.25	8
0	3719	1.25	5
0	3720	1.25	3
0	3721	1.25	5
0	3722	1.25	3
0	3723	1.25	1
0	3724	1.25	1
0	3831	1.3	3
0	3832	1.3	5
0	3833	1.3	3
0	3834	1.3	5
0	3835	1.3	8
0	3836	1.3	5
0	3837	1.3	3
0	3838	1.3	5
0	3839	1.3	3
0	3840	1.3	1
0	3841	1.3	1
0	3843	1.3	3
0	3844	1.3	5
0	3845	1.3	3
0	3846	1.3	5
0	3847	1.3	8
0	3848	1.3	5
0	3849	1.3	3
0	3850	1.3	5
0	3851	1.3	3
0	3852	1.3	1
0	3853	1.3	1
0	3964	1.35	3
0	3965	1.35	5
0	3966	1.35	3
0	3967	1.35	5
0	3968	1.35	8
0	3969	1.35	5
0	3970	1.35	3
0	3971	1.35	5
0	3972	1.35	3
0	3973	1.35	1
0	3974	1.35	1
0	4063	1.4	3
0	4064	1.4	5
0	4065	1.4	3
0	4066	1.4	5
0	4067	1.4	8
0	4068	1.4	5
0	4069	1.4	3
0	4070	1.4	5
0	4071	1.4	3
0	4072	1.4	1
0	4073	1.4	1
0	4075	1.4	3
0	4076	1.4	5
0	4077	1.4	3
0	4078	1.4	5
0	4079	1.4	8
0	4080	1.4	5
0	4081	1.4	3
0	4082	1.4	5
0	4083	1.4	3
0	4084	1.4	1
0	4085	1.4	1
0	4196	1.45	3
0	4197	1.45	5
0	4198	1.45	3
0	4199	1.45	5
0	4200	1.45	8
0	4201	1.45	5
0	4202	1.45	3
0	4203	1.45	5
0	4204	1.45	3
0	4205	1.45	1
0	4206	1.45	1
0	4295	1.5	3
0	4296	1.5	5
0	4297	1.5	3
0	4298	1.5	5
0	4299	1.5	8
0	4300	1.5	5
0	4301	1.5	3
0	4302	1.5	5
0	4303	1.5	3
0	4304	1.5	1
0	4305	1.5	1
0	4307	1.5	3
0	4308	1.5	5
0	4309	1.5	3
0	4310	1.5	5
0	4311	1.5	8
0	4312	1.5	5
0	4313	1.5	3
0	4314	1.5	5
0	4315	1.5	3
0	4316	1.5	1
0	4317	1.5	1
0	4428	1.55	3
0	4429	1.55	5
0	4430	1.55	3
0	4431	1.55	5
0	4432	1.55	8
0	4433	1.55	5
0	4434	1.55	3
0	4435	1.55	5
0	4436	1.55	3
0	4437	1.55	1
0	4438	1.55	1
0	4527	1.6	3
0	4528	1.6	5
0	4529	1.6	3
0	4530	1.6	5
0	4531	1.6	8
0	4532	1.6	5
0	4533	1.6	3
0	4534	1.6	5
0	4535	1.6	3
0	4536	1.6	1
0	4537	1.6	1
0	4539	1.6	3
0	4540	1.6	5
0	4541	1.6	3
0	4542	1.6	5
0	4543	1.6	8
0	4544	1.6	5
0	4545	1.6	3
0	4546	1.6	5
0	4547	1.6	3
0	4548	1.6	1
0	4549	1.6	1
0	4660	1.65	3
0	4661	1.65	5
0	4662	1.65	3
0	4663	1.65	5
0	4664	1.65	8
0	4665	1.65	5
0	4666	1.65	3
0	4667	1.65	5
0	4668	1.65	3
0	4669	1.65	1
0	4670	1.65	1
0	5141	1.7	3
0	5142	1.7	5
0	5143	1.7	3
0	5144	1.7	5
0	5145	1.7	8
0	5146	1.7	5
0	5147	1.7	3
0	5148	1.7	5
0	5149	1.7	3
0	5150	1.7	1
0	5151	1.7	1
0	5153	1.7	3
0	5154	1.7	5
0	5155	1.7	3
0	5156	1.7	5
0	5157	1.7	8
0	5158	1.7	5
0	5159	1.7	3
0	5160	1.7	5
0	5161	1.7	3
0	5162	1.7	1
0	5163	1.7	1
0	5526	1.75	3
0	5527	1.75	5
0	5528	1.75	3
0	5529	1.75	5
0	5530	1.75	8
0	5531	1.75	5
0	5532	1.75	3
0	5533	1.75	5
0	5534	1.75	3
0	5535	1.75	1
0	5536	1.75	1
0	5721	1.8	3
0	5722	1.8	5
0	5723	1.8	3
0	5724	1.8	5
0	5725	1.8	8
0	5726	1.8	5
0	5727	1.8	3
0	5728	1.8	5
0	5729	1.8	3
0	5730	1.8	1
0	5731	1.8	1
0	5733	1.8	3
0	5734	1.8	5
0	5735	1.8	3
0	5736	1.8	5
0	5737	1.8	8
0	5738	1.8	5
0	5739	1.8	3
0	5740	1.8	5
0	5741	1.8	3
0	5742	1.8	1
0	5743	1.8	1
0	5854	1.85	3
0	5855	1.85	5
0	5856	1.85	3
0	5857	1.85	5
0	5858	1.85	8
0	5859	1.85	5
0	5860	1.85	3
0	5861	1.85	5
0	5862	1.85	3
0	5863	1.85	1
0	5864	1.85	1
0	5976	1.9	3
0	5977	1.9	5
0	5978	1.9	3
0	5979	1.9	5
0	5980	1.9	8
0	5981	1.9	5
0	5982	1.9	3
0	5983	1.9	5
0	5984	1.9	3
0	5985	1.9	1
0	5986	1.9	1
0	5988	1.9	3
0	5989	1.9	5
0	5990	1.9	3
0	5991	1.9	5
0	5992	1.9	8
0	5993	1.9	5
0	5994	1.9	3
0	5995	1.9	5
0	5996	1.9	3
0	5997	1.9	1
0	5998	1.9	1
0	6109	1.95	3
0	6110	1.95	5
0	6111	1.95	3
0	6112	1.95	5
0	6113	1.95	8
0	6114	1.95	5
0	6115	1.95	3
0	6116	1.95	5
0	6117	1.95	3
0	6118	1.95	1
0	6119	1.95	1
0	6208	2	3
0	6209	2	5
0	6210	2	3
0	6211	2	5
0	6212	2	8
0	6213	2	5
0	6214	2	3
0	6215	2	5
0	6216	2	3
0	6217	2	1
0	6218	2	1
0	6220	2	3
0	6221	2	5
0	6222	2	3
0	6223	2	5
0	6224	2	8
0	6225	2	5
0	6226	2	3
0	6227	2	5
0	6228	2	3
0	6229	2	1
0	6230	2	1
0	6341	2.05	3
0	6342	2.05	5
0	6343	2.05	3
0	6344	2.05	5
0	6345	2.05	8
0	6346	2.05	5
0	6347	2.05	3
0	6348	2.05	5
0	6349	2.05	3
0	6350	2.05	1
0	6351	2.05	1
0	6451	2.1	3
0	6452	2.1	5
0	6453	2.1	3
0	6454	2.1	5
0	6455	2.1	8
0	6456	2.1	5
0	6457	2.1	3
0	6458	2.1	5
0	6459	2.1	3
0	6460	2.1	1
0	6461	2.1	1
0	6463	2.1	3
0	6464	2.1	5
0	6465	2.1	3
0	6466	2.1	5
0	6467	2.1	8
0	6468	2.1	5
0	6469	2.1	3
0	6470	2.1	5
0	6471	2.1	3
0	6472	2.1	1
0	6473	2.1	1
0	6595	2.15	3
0	6596	2.15	5
0	6597	2.15	3
0	6598	2.15	5
0	6599	2.15	8
0	6600	2.15	5
0	6601	2.15	3
0	6602	2.15	5
0	6603	2.15	3
0	6604	2.15	1
0	6605	2.15	1
0	6694	2.2	3
0	6695	2.2	5
0	6696	2.2	3
0	6697	2.2	5
0	6698	2.2	8
0	6699	2.2	5
0	6700	2.2	3
0	6701	2.2	5
0	6702	2.2	3
0	6703	2.2	1
0	6704	2.2	1
0	6706	2.2	3
0	6707	2.2	5
0	6708	2.2	3
0	6709	2.2	5
0	6710	2.2	8
0	6711	2.2	5
0	6712	2.2	3
0	6713	2.2	5
0	6714	2.2	3
0	6715	2.2	1
0	6716	2.2	1
0	7234	2.25	3
0	7235	2.25	5
0	7236	2.25	3
0	7237	2.25	5
0	7238	2.25	8
0	7239	2.25	5
0	7240	2.25	3
0	7241	2.25	5
0	7242	2.25	3
0	7243	2.25	1
0	7244	2.25	1
0	7543	2.3	3
0	7544	2.3	5
0	7545	2.3	3
0	7546	2.3	5
0	7547	2.3	8
0	7548	2.3	5
0	7549	2.3	3
0	7550	2.3	5
0	7551	2.3	3
0	7552	2.3	1
0	7553	2.3	1
0	7555	2.3	3
0	7556	2.3	5
0	7557	2.3	3
0	7558	2.3	5
0	7559	2.3	8
0	7560	2.3	5
0	7561	2.3	3
0	7562	2.3	5
0	7563	2.3	3
0	7564	2.3	1
0	7565	2.3	1
0	7712	2.35	3
0	7713	2.35	5
0	7714	2.35	3
0	7715	2.35	5
0	7716	2.35	8
0	7717	2.35	5
0	7718	2.35	3
0	7719	2.35	5
0	7720	2.35	3
0	7721	2.35	1
0	7722	2.35	1
0	7902	2.4	3
0	7903	2.4	5
0	7904	2.4	3
0	7905	2.4	5
0	7906	2.4	8
0	7907	2.4	5
0	7908	2.4	3
0	7909	2.4	5
0	7910	2.4	3
0	7911	2.4	1
0	7912	2.4	1
0	7914	2.4	3
0	7915	2.4	5
0	7916	2.4	3
0	7917	2.4	5
0	7918	2.4	8
0	7919	2.4	5
0	7920	2.4	3
0	7921	2.4	5
0	7922	2.4	3
0	7923	2.4	1
0	7924	2.4	1
0	8058	2.45	3
0	8059	2.45	5
0	8060	2.45	3
0	8061	2.45	5
0	8062	2.45	8
0	8063	2.45	5
0	8064	2.45	3
0	8065	2.45	5
0	8066	2.45	3
0	8067	2.45	1
0	8068	2.45	1
0	8157	2.5	3
0	8158	2.5	5
0	8159	2.5	3
0	8160	2.5	5
0	8161	2.5	8
0	8162	2.5	5
0	8163	2.5	3
0	8164	2.5	5
0	8165	2.5	3
0	8166	2.5	1
0	8167	2.5	1
0	8169	2.5	3
0	8170	2.5	5
0	8171	2.5	3
0	8172	2.5	5
0	8173	2.5	8
0	8174	2.5	5
0	8175	2.5	3
0	8176	2.5	5
0	8177	2.5	3
0	8178	2.5	1
0	8179	2.5	1
0	8290	2.55	3
0	8291	2.55	5
0	8292	2.55	3
0	8293	2.55	5
0	8294	2.55	8
0	8295	2.55	5
0	8296	2.55	3
0	8297	2.55	5
0	8298	2.55	3
0	8299	2.55	1
0	8300	2.55	1
0	8389	2.6	3
0	8390	2.6	5
0	8391	2.6	3
0	8392	2.6	5
0	8393	2.6	8
0	8394	2.6	5
0	8395	2.6	3
0	8396	2.6	5
0	8397	2.6	3
0	8398	2.6	1
0	8399	2.6	1
0	8401	2.6	3
0	8402	2.6	5
0	8403	2.6	3
0	8404	2.6	5
0	8405	2.6	8
0	8406	2.6	5
0	8407	2.6	3
0	8408	2.6	5
0	8409	2.6	3
0	8410	2.6	1
0	8411	2.6	1
0	8522	2.65	3
0	8523	2.65	5
0	8524	2.65	3
0	8525	2.65	5
0	8526	2.65	8
0	8527	2.65	5
0	8528	2.65	3
0	8529	2.65	5
0	8530	2.65	3
0	8531	2.65	1
0	8532	2.65	1
0	8621	2.7	3
0	8622	2.7	5
0	8623	2.7	3
0	8624	2.7	5
0	8625	2.7	8
0	8626	2.7	5
0	8627	2.7	3
0	8628	2.7	5
0	8629	2.7	3
0	8630	2.7	1
0	8631	2.7	1
0	8633	2.7	3
0	8634	2.7	5
0	8635	2.7	3
0	8636	2.7	5
0	8637	2.7	8
0	8638	2.7	5
0	8639	2.7	3
0	8640	2.7	5
0	8641	2.7	3
0	8642	2.7	1
0	8643	2.7	1
0	8799	2.75	3
0	8800	2.75	5
0	8801	2.75	3
0	8802	2.75	5
0	8803	2.75	8
0	8804	2.75	5
0	8805	2.75	3
0	8806	2.75	5
0	8807	2.75	3
0	8808	2.75	1
0	8809	2.75	1
0	9291	2.8	3
0	9292	2.8	5
0	9293	2.8	3
0	9294	2.8	5
0	9295	2.8	8
0	9296	2.8	5
0	9297	2.8	3
0	9298	2.8	5
0	9299	2.8	3
0	9300	2.8	1
0	9301	2.8	1
0	9303	2.8	3
0	9304	2.8	5
0	9305	2.8	3
0	9306	2.8	5
0	9307	2.8	8
0	9308	2.8	5
0	9309	2.8	3
0	9310	2.8	5
0	9311	2.8	3
0	9312	2.8	1
0	9313	2.8	1
0	9586	2.85	3
0	9587	2.85	5
0	9588	2.85	3
0	9589	2.85	5
0	9590	2.85	8
0	9591	2.85	5
0	9592	2.85	3
0	9593	2.85	5
0	9594	2.85	3
0	9595	2.85	1
0	9596	2.85	1
0	9685	2.9	3
0	9686	2.9	5
0	9687	2.9	3
0	9688	2.9	5
0	9689	2.9	8
0	9690	2.9	5
0	9691	2.9	3
0	9692	2.9	5
0	9693	2.9	3
0	9694	2.9	1
0	9695	2.9	1
0	9697	2.9	3
0	9698	2.9	5
0	9699	2.9	3
0	9700	2.9	5
0	9701	2.9	8
0	9702	2.9	5
0	9703	2.9	3
0	9704	2.9	5
0	9705	2.9	3
0	9706	2.9	1
0	9707	2.9	1
0	9910	2.95	3
0	9911	2.95	5
0	9912	2.95	3
0	9913	2.95	5
0	9914	2.95	8
0	9915	2.95	5
0	9916	2.95	3
0	9917	2.95	5
0	9918	2.95	3
0	9919	2.95	1
0	9920	2.95	1
0	10031	3	3
0	10032	3	5
0	10033	3	3
0	10034	3	5
0	10035	3	8
0	10036	3	5
0	10037	3	3
0	10038	3	5
0	10039	3	3
0	10040	3	1
0	10041	3	1
0	10043	3	3
0	10044	3	5
0	10045	3	3
0	10046	3	5
0	10047	3	8
0	10048	3	5
0	10049	3	3
0	10050	3	5
0	10051	3	3
0	10052	3	1
0	10053	3	1
0	10164	3.05	3
0	10165	3.05	5
0	10166	3.05	3
0	10167	3.05	5
0	10168	3.05	8
0	10169	3.05	5
0	10170	3.05	3
0	10171	3.05	5
0	10172	3.05	3
0	10173	3.05	1
0	10174	3.05	1
0	10274	3.1	3
0	10275	3.1	5
0	10276	3.1	3
0	10277	3.1	5
0	10278	3.1	8
0	10279	3.1	5
0	10280	3.1	3
0	10281	3.1	5
0	10282	3.1	3
0	10283	3.1	1
0	10284	3.1	1
0	10286	3.1	3
0	10287	3.1	5
0	10288	3.1	3
0	10289	3.1	5
0	10290	3.1	8
0	10291	3.1	5
0	10292	3.1	3
0	10293	3.1	5
0	10294	3.1	3
0	10295	3.1	1
0	10296	3.1	1
0	10418	3.15	3
0	10419	3.15	5
0	10420	3.15	3
0	10421	3.15	5
0	10422	3.15	8
0	10423	3.15	5
0	10424	3.15	3
0	10425	3.15	5
0	10426	3.15	3
0	10427	3.15	1
0	10428	3.15	1
0	10517	3.2	3
0	10518	3.2	5
0	10519	3.2	3
0	10520	3.2	5
0	10521	3.2	8
0	10522	3.2	5
0	10523	3.2	3
0	10524	3.2	5
0	10525	3.2	3
0	10526	3.2	1
0	10527	3.2	1
0	10529	3.2	3
0	10530	3.2	5
0	10531	3.2	3
0	10532	3.2	5
0	10533	3.2	8
0	10534	3.2	5
0	10535	3.2	3
0	10536	3.2	5
0	10537	3.2	3
0	10538	3.2	1
0	10539	3.2	1
0	10650	3.25	3
0	10651	3.25	5
0	10652	3.25	3
0	10653	3.25	5
0	10654	3.25	8
0	10655	3.25	5
0	10656	3.25	3
0	10657	3.25	5
0	10658	3.25	3
0	10659	3.25	1
0	10660	3.25	1
0	10805	3.3	3
0	10806	3.3	5
0	10807	3.3	3
0	10808	3.3	5
0	10809	3.3	8
0	10810	3.3	5
0	10811	3.3	3
0	10812	3.3	5
0	10813	3.3	3
0	10814	3.3	1
0	10815	3.3	1
0	10817	3.3	3
0	10818	3.3	5
0	10819	3.3	3
0	10820	3.3	5
0	10821	3.3	8
0	10822	3.3	5
0	10823	3.3	3
0	10824	3.3	5
0	10825	3.3	3
0	10826	3.3	1
0	10827	3.3	1
0	11332	3.35	3
0	11333	3.35	5
0	11334	3.35	3
0	11335	3.35	5
0	11336	3.35	8
0	11337	3.35	5
0	11338	3.35	3
0	11339	3.35	5
0	11340	3.35	3
0	11341	3.35	1
0	11342	3.35	1
0	11524	3.4	3
0	11525	3.4	5
0	11526	3.4	3
0	11527	3.4	5
0	11528	3.4	8
0	11529	3.4	5
0	11530	3.4	3
0	11531	3.4	5
0	11532	3.4	3
0	11533	3.4	1
0	11534	3.4	1
0	11536	3.4	3
0	11537	3.4	5
0	11538	3.4	3
0	11539	3.4	5
0	11540	3.4	8
0	11541	3.4	5
0	11542	3.4	3
0	11543	3.4	5
0	11544	3.4	3
0	11545	3.4	1
0	11546	3.4	1
0	11662	3.45	3
0	11663	3.45	5
0	11664	3.45	3
0	11665	3.45	5
0	11666	3.45	8
0	11667	3.45	5
0	11668	3.45	3
0	11669	3.45	5
0	11670	3.45	3
0	11671	3.45	1
0	11672	3.45	1
0	11847	3.5	3
0	11848	3.5	5
0	11849	3.5	3
0	11850	3.5	5
0	11851	3.5	8
0	11852	3.5	5
0	11853	3.5	3
0	11854	3.5	5
0	11855	3.5	3
0	11856	3.5	1
0	11857	3.5	1
0	11859	3.5	3
0	11860	3.5	5
0	11861	3.5	3
0	11862	3.5	5
0	11863	3.5	8
0	11864	3.5	5
0	11865	3.5	3
0	11866	3.5	5
0	11867	3.5	3
0	11868	3.5	1
0	11869	3.5	1
0	11985	3.55	3
0	11986	3.55	5
0	11987	3.55	3
0	11988	3.55	5
0	11989	3.55	8
0	11990	3.55	5
0	11991	3.55	3
0	11992	3.55	5
0	11993	3.55	3
0	11994	3.55	1
0	11995	3.55	1
0	12084	3.6	3
0	12085	3.6	5
0	12086	3.6	3
0	12087	3.6	5
0	12088	3.6	8
0	12089	3.6	5
0	12090	3.6	3
0	12091	3.6	5
0	12092	3.6	3
0	12093	3.6	1
0	12094	3.6	1
0	12096	3.6	3
0	12097	3.6	5
0	12098	3.6	3
0	12099	3.6	5
0	12100	3.6	8
0	12101	3.6	5
0	12102	3.6	3
0	12103	3.6	5
0	12104	3.6	3
0	12105	3.6	1
0	12106	3.6	1
0	12217	3.65	3
0	12218	3.65	5
0	12219	3.65	3
0	12220	3.65	5
0	12221	3.65	8
0	12222	3.65	5
0	12223	3.65	3
0	12224	3.65	5
0	12225	3.65	3
0	12226	3.65	1
0	12227	3.65	1
0	12316	3.7	3
0	12317	3.7	5
0	12318	3.7	3
0	12319	3.7	5
0	12320	3.7	8
0	12321	3.7	5
0	12322	3.7	3
0	12323	3.7	5
0	12324	3.7	3
0	12325	3.7	1
0	12326	3.7	1
0	12328	3.7	3
0	12329	3.7	5
0	12330	3.7	3
0	12331	3.7	5
0	12332	3.7	8
0	12333	3.7	5
0	12334	3.7	3
0	12335	3.7	5
0	12336	3.7	3
0	12337	3.7	1
0	12338	3.7	1
0	12449	3.75	3
0	12450	3.75	5
0	12451	3.75	3
0	12452	3.75	5
0	12453	3.75	8
0	12454	3.75	5
0	12455	3.75	3
0	12456	3.75	5
0	12457	3.75	3
0	12458	3.75	1
0	12459	3.75	1
0	12548	3.8	3
0	12549	3.8	5
0	12550	3.8	3
0	12551	3.8	5
0	12552	3.8	8
0	12553	3.8	5
0	12554	3.8	3
0	12555	3.8	5
0	12556	3.8	3
0	12557	3.8	1
0	12558	3.8	1
0	12560	3.8	3
0	12561	3.8	5
0	12562	3.8	3
0	12563	3.8	5
0	12564	3.8	8
0	12565	3.8	5
0	12566	3.8	3
0	12567	3.8	5
0	12568	3.8	3
0	12569	3.8	1
0	12570	3.8	1
0	12732	3.85	3
0	12733	3.85	5
0	12734	3.85	3
0	12735	3.85	5
0	12736	3.85	8
0	12737	3.85	5
0	12738	3.85	3
0	12739	3.85	5
0	12740	3.85	3
0	12741	3.85	1
0	12742	3.85	1
0	13171	3.9	3
0	13172	3.9	5
0	13173	3.9	3
0	13174	3.9	5
0	13175	3.9	8
0	13176	3.9	5
0	13177	3.9	3
0	13178	3.9	5
0	13179	3.9	3
0	13180	3.9	1
0	13181	3.9	1
0	13183	3.9	3
0	13184	3.9	5
0	13185	3.9	3
0	13186	3.9	5
0	13187	3.9	8
0	13188	3.9	5
0	13189	3.9	3
0	13190	3.9	5
0	13191	3.9	3
0	13192	3.9	1
0	13193	3.9	1
0	13352	3.95	3
0	13353	3.95	5
0	13354	3.95	3
0	13355	3.95	5
0	13356	3.95	8
0	13357	3.95	5
0	13358	3.95	3
0	13359	3.95	5
0	13360	3.95	3
0	13361	3.95	1
0	13362	3.95	1
0	13537	4	3
0	13538	4	5
0	13539	4	3
0	13540	4	5
0	13541	4	8
0	13542	4	5
0	13543	4	3
0	13544	4	5
0	13545	4	3
0	13546	4	1
0	13547	4	1
0	13549	4	3
0	13550	4	5
0	13551	4	3
0	13552	4	5
0	13553	4	8
0	13554	4	5
0	13555	4	3
0	13556	4	5
0	13557	4	3
0	13558	4	1
0	13559	4	1
0	13739	4.05	3
0	13740	4.05	5
0	13741	4.05	3
0	13742	4.05	5
0	13743	4.05	8
0	13744	4.05	5
0	13745	4.05	3
0	13746	4.05	5
0	13747	4.05	3
0	13748	4.05	1
0	13749	4.05	1
0	13849	4.1	3
0	13850	4.1	5
0	13851	4.1	3
0	13852	4.1	5
0	13853	4.1	8
0	13854	4.1	5
0	13855	4.1	3
0	13856	4.1	5
0	13857	4.1	3
0	13858	4.1	1
0	13859	4.1	1
0	13861	4.1	3
0	13862	4.1	5
0	13863	4.1	3
0	13864	4.1	5
0	13865	4.1	8
0	13866	4.1	5
0	13867	4.1	3
0	13868	4.1	5
0	13869	4.1	3
0	13870	4.1	1
0	13871	4.1	1
0	14016	4.15	3
0	14017	4.15	5
0	14018	4.15	3
0	14019	4.15	5
0	14020	4.15	8
0	14021	4.15	5
0	14022	4.15	3
0	14023	4.15	5
0	14024	4.15	3
0	14025	4.15	1
0	14026	4.15	1
0	14115	4.2	3
0	14116	4.2	5
0	14117	4.2	3
0	14118	4.2	5
0	14119	4.2	8
0	14120	4.2	5
0	14121	4.2	3
0	14122	4.2	5
0	14123	4.2	3
0	14124	4.2	1
0	14125	4.2	1
0	14127	4.2	3
0	14128	4.2	5
0	14129	4.2	3
0	14130	4.2	5
0	14131	4.2	8
0	14132	4.2	5
0	14133	4.2	3
0	14134	4.2	5
0	14135	4.2	3
0	14136	4.2	1
0	14137	4.2	1
0	14248	4.25	3
0	14249	4.25	5
0	14250	4.25	3
0	14251	4.25	5
0	14252	4.25	8
0	14253	4.25	5
0	14254	4.25	3
0	14255	4.25	5
0	14256	4.25	3
0	14257	4.25	1
0	14258	4.25	1
0	14347	4.3	3
0	14348	4.3	5
0	14349	4.3	3
0	14350	4.3	5
0	14351	4.3	8
0	14352	4.3	5
0	14353	4.3	3
0	14354	4.3	5
0	14355	4.3	3
0	14356	4.3	1
0	14357	4.3	1
0	14359	4.3	3
0	14360	4.3	5
0	14361	4.3	3
0	14362	4.3	5
0	14363	4.3	8
0	14364	4.3	5
0	14365	4.3	3
0	14366	4.3	5
0	14367	4.3	3
0	14368	4.3	1
0	14369	4.3	1
0	14480	4.35	3
0	14481	4.35	5
0	14482	4.35	3
0	14483	4.35	5
0	14484	4.35	8
0	14485	4.35	5
0	14486	4.35	3
0	14487	4.35	5
0	14488	4.35	3
0	14489	4.35	1
0	14490	4.35	1
0	14676	4.4	3
0	14677	4.4	5
0	14678	4.4	3
0	14679	4.4	5
0	14680	4.4	8
0	14681	4.4	5
0	14682	4.4	3
0	14683	4.4	5
0	14684	4.4	3
0	14685	4.4	1
0	14686	4.4	1
0	14688	4.4	3
0	14689	4.4	5
0	14690	4.4	3
0	14691	4.4	5
0	14692	4.4	8
0	14693	4.4	5
0	14694	4.4	3
0	14695	4.4	5
0	14696	4.4	3
0	14697	4.4	1
0	14698	4.4	1
0	15117	4.45	3
0	15118	4.45	5
0	15119	4.45	3
0	15120	4.45	5
0	15121	4.45	8
0	15122	4.45	5
0	15123	4.45	3
0	15124	4.45	5
0	15125	4.45	3
0	15126	4.45	1
0	15127	4.45	1
0	15280	4.5	3
0	15281	4.5	5
0	15282	4.5	3
0	15283	4.5	5
0	15284	4.5	8
0	15285	4.5	5
0	15286	4.5	3
0	15287	4.5	5
0	15288	4.5	3
0	15289	4.5	1
0	15290	4.5	1
0	15292	4.5	3
0	15293	4.5	5
0	15294	4.5	3
0	15295	4.5	5
0	15296	4.5	8
0	15297	4.5	5
0	15298	4.5	3
0	15299	4.5	5
0	15300	4.5	3
0	15301	4.5	1
0	15302	4.5	1
0	15475	4.55	3
0	15476	4.55	5
0	15477	4.55	3
0	15478	4.55	5
0	15479	4.55	8
0	15480	4.55	5
0	15481	4.55	3
0	15482	4.55	5
0	15483	4.55	3
0	15484	4.55	1
0	15485	4.55	1
0	15666	4.6	3
0	15667	4.6	5
0	15668	4.6	3
0	15669	4.6	5
0	15670	4.6	8
0	15671	4.6	5
0	15672	4.6	3
0	15673	4.6	5
0	15674	4.6	3
0	15675	4.6	1
0	15676	4.6	1
0	15678	4.6	3
0	15679	4.6	5
0	15680	4.6	3
0	15681	4.6	5
0	15682	4.6	8
0	15683	4.6	5
0	15684	4.6	3
0	15685	4.6	5
0	15686	4.6	3
0	15687	4.6	1
0	15688	4.6	1
0	15822	4.65	3
0	15823	4.65	5
0	15824	4.65	3
0	15825	4.65	5
0	15826	4.65	8
0	15827	4.65	5
0	15828	4.65	3
0	15829	4.65	5
0	15830	4.65	3
0	15831	4.65	1
0	15832	4.65	1
0	15944	4.7	3
0	15945	4.7	5
0	15946	4.7	3
0	15947	4.7	5
0	15948	4.7	8
0	15949	4.7	5
0	15950	4.7	3
0	15951	4.7	5
0	15952	4.7	3
0	15953	4.7	1
0	15954	4.7	1
0	15956	4.7	3
0	15957	4.7	5
0	15958	4.7	3
0	15959	4.7	5
0	15960	4.7	8
0	15961	4.7	5
0	15962	4.7	3
0	15963	4.7	5
0	15964	4.7	3
0	15965	4.7	1
0	15966	4.7	1
0	16077	4.75	3
0	16078	4.75	5
0	16079	4.75	3
0	16080	4.75	5
0	16081	4.75	8
0	16082	4.75	5
0	16083	4.75	3
0	16084	4.75	5
0	16085	4.75	3
0	16086	4.75	1
0	16087	4.75	1
0	16176	4.8	3
0	16177	4.8	5
0	16178	4.8	3
0	16179	4.8	5
0	16180	4.8	8
0	16181	4.8	5
0	16182	4.8	3
0	16183	4.8	5
0	16184	4.8	3
0	16185	4.8	1
0	16186	4.8	1
0	16188	4.8	3
0	16189	4.8	5
0	16190	4.8	3
0	16191	4.8	5
0	16192	4.8	8
0	16193	4.8	5
0	16194	4.8	3
0	16195	4.8	5
0	16196	4.8	3
0	16197	4.8	1
0	16198	4.8	1
0	16309	4.85	3
0	16310	4.85	5
0	16311	4.85	3
0	16312	4.85	5
0	16313	4.85	8
0	16314	4.85	5
0	16315	4.85	3
0	16316	4.85	5
0	16317	4.85	3
0	16318	4.85	1
0	16319	4.85	1
0	16431	4.9	3
0	16432	4.9	5
0	16433	4.9	3
0	16434	4.9	5
0	16435	4.9	8
0	16436	4.9	5
0	16437	4.9	3
0	16438	4.9	5
0	16439	4.9	3
0	16440	4.9	1
0	16441	4.9	1
0	16443	4.9	3
0	16444	4.9	5
0	16445	4.9	3
0	16446	4.9	5
0	16447	4.9	8
0	16448	4.9	5
0	16449	4.9	3
0	16450	4.9	5
0	16451	4.9	3
0	16452	4.9	1
0	16453	4.9	1
0	16638	4.95	3
0	16639	4.95	5
0	16640	4.95	3
0	16641	4.95	5
0	16642	4.95	8
0	16643	4.95	5
0	16644	4.95	3
0	16645	4.95	5
0	16646	4.95	3
0	16647	4.95	1
0	16648	4.95	1
0	17052	5	3
0	17053	5	5
0	17054	5	3
0	17055	5	5
0	17056	5	8
0	17057	5	5
0	17058	5	3
0	17059	5	5
0	17060	5	3
0	17061	5	1
0	17062	5	1
0	17064	5	3
0	17065	5	5
0	17066	5	3
0	17067	5	5
0	17068	5	8
0	17069	5	5
0	17070	5	3
0	17071	5	5
0	17072	5	3
0	17073	5	1
0	17074	5	1
0	17242	5.05	3
0	17243	5.05	5
0	17244	5.05	3
0	17245	5.05	5
0	17246	5.05	8
0	17247	5.05	5
0	17248	5.05	3
0	17249	5.05	5
0	17250	5.05	3
0	17251	5.05	1
0	17252	5.05	1
0	17442	5.1	3
0	17443	5.1	5
0	17444	5.1	3
0	17445	5.1	5
0	17446	5.1	8
0	17447	5.1	5
0	17448	5.1	3
0	17449	5.1	5
0	17450	5.1	3
0	17451	5.1	1
0	17452	5.1	1
0	17454	5.1	3
0	17455	5.1	5
0	17456	5.1	3
0	17457	5.1	5
0	17458	5.1	8
0	17459	5.1	5
0	17460	5.1	3
0	17461	5.1	5
0	17462	5.1	3
0	17463	5.1	1
0	17464	5.1	1
0	17705	5.15	3
0	17706	5.15	5
0	17707	5.15	3
0	17708	5.15	5
0	17709	5.15	8
0	17710	5.15	5
0	17711	5.15	3
0	17712	5.15	5
0	17713	5.15	3
0	17714	5.15	1
0	17715	5.15	1
0	17857	5.2	3
0	17858	5.2	5
0	17859	5.2	3
0	17860	5.2	5
0	17861	5.2	8
0	17862	5.2	5
0	17863	5.2	3
0	17864	5.2	5
0	17865	5.2	3
0	17866	5.2	1
0	17867	5.2	1
0	17869	5.2	3
0	17870	5.2	5
0	17871	5.2	3
0	17872	5.2	5
0	17873	5.2	8
0	17874	5.2	5
0	17875	5.2	3
0	17876	5.2	5
0	17877	5.2	3
0	17878	5.2	1
0	17879	5.2	1
0	18013	5.25	3
0	18014	5.25	5
0	18015	5.25	3
0	18016	5.25	5
0	18017	5.25	8
0	18018	5.25	5
0	18019	5.25	3
0	18020	5.25	5
0	18021	5.25	3
0	18022	5.25	1
0	18023	5.25	1
0	18112	5.3	3
0	18113	5.3	5
0	18114	5.3	3
0	18115	5.3	5
0	18116	5.3	8
0	18117	5.3	5
0	18118	5.3	3
0	18119	5.3	5
0	18120	5.3	3
0	18121	5.3	1
0	18122	5.3	1
0	18124	5.3	3
0	18125	5.3	5
0	18126	5.3	3
0	18127	5.3	5
0	18128	5.3	8
0	18129	5.3	5
0	18130	5.3	3
0	18131	5.3	5
0	18132	5.3	3
0	18133	5.3	1
0	18134	5.3	1
0	18245	5.35	3
0	18246	5.35	5
0	18247	5.35	3
0	18248	5.35	5
0	18249	5.35	8
0	18250	5.35	5
0	18251	5.35	3
0	18252	5.35	5
0	18253	5.35	3
0	18254	5.35	1
0	18255	5.35	1
0	18344	5.4	3
0	18345	5.4	5
0	18346	5.4	3
0	18347	5.4	5
0	18348	5.4	8
0	18349	5.4	5
0	18350	5.4	3
0	18351	5.4	5
0	18352	5.4	3
0	18353	5.4	1
0	18354	5.4	1
0	18356	5.4	3
0	18357	5.4	5
0	18358	5.4	3
0	18359	5.4	5
0	18360	5.4	8
0	18361	5.4	5
0	18362	5.4	3
0	18363	5.4	5
0	18364	5.4	3
0	18365	5.4	1
0	18366	5.4	1
0	18482	5.45	3
0	18483	5.45	5
0	18484	5.45	3
0	18485	5.45	5
0	18486	5.45	8
0	18487	5.45	5
0	18488	5.45	3
0	18489	5.45	5
0	18490	5.45	3
0	18491	5.45	1
0	18492	5.45	1
0	18643	5.5	3
0	18644	5.5	5
0	18645	5.5	3
0	18646	5.5	5
0	18647	5.5	8
0	18648	5.5	5
0	18649	5.5	3
0	18650	5.5	5
0	18651	5.5	3
0	18652	5.5	1
0	18653	5.5	1
0	18655	5.5	3
0	18656	5.5	5
0	18657	5.5	3
0	18658	5.5	5
0	18659	5.5	8
0	18660	5.5	5
0	18661	5.5	3
0	18662	5.5	5
0	18663	5.5	3
0	18664	5.5	1
0	18665	5.5	1
0	19158	5.55	3
0	19159	5.55	5
0	19160	5.55	3
0	19161	5.55	5
0	19162	5.55	8
0	19163	5.55	5
0	19164	5.55	3
0	19165	5.55	5
0	19166	5.55	3
0	19167	5.55	1
0	19168	5.55	1
0	19512	5.6	3
0	19513	5.6	5
0	19514	5.6	3
0	19515	5.6	5
0	19516	5.6	8
0	19517	5.6	5
0	19518	5.6	3
0	19519	5.6	5
0	19520	5.6	3
0	19521	5.6	1
0	19522	5.6	1
0	19524	5.6	3
0	19525	5.6	5
0	19526	5.6	3
0	19527	5.6	5
0	19528	5.6	8
0	19529	5.6	5
0	19530	5.6	3
0	19531	5.6	5
0	19532	5.6	3
0	19533	5.6	1
0	19534	5.6	1
0	20021	5.65	3
0	20022	5.65	5
0	20023	5.65	3
0	20024	5.65	5
0	20025	5.65	8
0	20026	5.65	5
0	20027	5.65	3
0	20028	5.65	5
0	20029	5.65	3
0	20030	5.65	1
0	20031	5.65	1
0	20337	5.7	3
0	20338	5.7	5
0	20339	5.7	3
0	20340	5.7	5
0	20341	5.7	8
0	20342	5.7	5
0	20343	5.7	3
0	20344	5.7	5
0	20345	5.7	3
0	20346	5.7	1
0	20347	5.7	1
0	20349	5.7	3
0	20350	5.7	5
0	20351	5.7	3
0	20352	5.7	5
0	20353	5.7	8
0	20354	5.7	5
0	20355	5.7	3
0	20356	5.7	5
0	20357	5.7	3
0	20358	5.7	1
0	20359	5.7	1
0	20539	5.75	3
0	20540	5.75	5
0	20541	5.75	3
0	20542	5.75	5
0	20543	5.75	8
0	20544	5.75	5
0	20545	5.75	3
0	20546	5.75	5
0	20547	5.75	3
0	20548	5.75	1
0	20549	5.75	1
0	20707	5.8	3
0	20708	5.8	5
0	20709	5.8	3
0	20710	5.8	5
0	20711	5.8	8
0	20712	5.8	5
0	20713	5.8	3
0	20714	5.8	5
0	20715	5.8	3
0	20716	5.8	1
0	20717	5.8	1
0	20719	5.8	3
0	20720	5.8	5
0	20721	5.8	3
0	20722	5.8	5
0	20723	5.8	8
0	20724	5.8	5
0	20725	5.8	3
0	20726	5.8	5
0	20727	5.8	3
0	20728	5.8	1
0	20729	5.8	1
0	20840	5.85	3
0	20841	5.85	5
0	20842	5.85	3
0	20843	5.85	5
0	20844	5.85	8
0	20845	5.85	5
0	20846	5.85	3
0	20847	5.85	5
0	20848	5.85	3
0	20849	5.85	1
0	20850	5.85	1
0	20939	5.9	3
0	20940	5.9	5
0	20941	5.9	3
0	20942	5.9	5
0	20943	5.9	8
0	20944	5.9	5
0	20945	5.9	3
0	20946	5.9	5
0	20947	5.9	3
0	20948	5.9	1
0	20949	5.9	1
0	20951	5.9	3
0	20952	5.9	5
0	20953	5.9	3
0	20954	5.9	5
0	20955	5.9	8
0	20956	5.9	5
0	20957	5.9	3
0	20958	5.9	5
0	20959	5.9	3
0	20960	5.9	1
0	20961	5.9	1
0	21072	5.95	3
0	21073	5.95	5
0	21074	5.95	3
0	21075	5.95	5
0	21076	5.95	8
0	21077	5.95	5
0	21078	5.95	3
0	21079	5.95	5
0	21080	5.95	3
0	21081	5.95	1
0	21082	5.95	1
0	21205	6	3
0	21206	6	5
0	21207	6	3
0	21208	6	5
0	21209	6	8
0	21210	6	5
0	21211	6	3
0	21212	6	5
0	21213	6	3
0	21214	6	1
0	21215	6	1
0	21217	6	3
0	21218	6	5
0	21219	6	3
0	21220	6	5
0	21221	6	8
0	21222	6	5
0	21223	6	3
0	21224	6	5
0	21225	6	3
0	21226	6	1
0	21227	6	1
0	21378	6.05	3
0	21379	6.05	5
0	21380	6.05	3
0	21381	6.05	5
0	21382	6.05	8
0	21383	6.05	5
0	21384	6.05	3
0	21385	6.05	5
0	21386	6.05	3
0	21387	6.05	1
0	21388	6.05	1
0	21821	6.1	3
0	21822	6.1	5
0	21823	6.1	3
0	21824	6.1	5
0	21825	6.1	8
0	21826	6.1	5
0	21827	6.1	3
0	21828	6.1	5
0	21829	6.1	3
0	21830	6.1	1
0	21831	6.1	1
0	21833	6.1	3
0	21834	6.1	5
0	21835	6.1	3
0	21836	6.1	5
0	21837	6.1	8
0	21838	6.1	5
0	21839	6.1	3
0	21840	6.1	5
0	21841	6.1	3
0	21842	6.1	1
0	21843	6.1	1
0	22133	6.15	3
0	22134	6.15	5
0	22135	6.15	3
0	22136	6.15	5
0	22137	6.15	8
0	22138	6.15	5
0	22139	6.15	3
0	22140	6.15	5
0	22141	6.15	3
0	22142	6.15	1
0	22143	6.15	1
0	22483	6.2	3
0	22484	6.2	5
0	22485	6.2	3
0	22486	6.2	5
0	22487	6.2	8
0	22488	6.2	5
0	22489	6.2	3
0	22490	6.2	5
0	22491	6.2	3
0	22492	6.2	1
0	22493	6.2	1
0	22495	6.2	3
0	22496	6.2	5
0	22497	6.2	3
0	22498	6.2	5
0	22499	6.2	8
0	22500	6.2	5
0	22501	6.2	3
0	22502	6.2	5
0	22503	6.2	3
0	22504	6.2	1
0	22505	6.2	1
0	22775	6.25	3
0	22776	6.25	5
0	22777	6.25	3
0	22778	6.25	5
0	22779	6.25	8
0	22780	6.25	5
0	22781	6.25	3
0	22782	6.25	5
0	22783	6.25	3
0	22784	6.25	1
0	22785	6.25	1
0	22879	6.3	3
0	22880	6.3	5
0	22881	6.3	3
0	22882	6.3	5
0	22883	6.3	8
0	22884	6.3	5
0	22885	6.3	3
0	22886	6.3	5
0	22887	6.3	3
0	22888	6.3	1
0	22889	6.3	1
0	22891	6.3	3
0	22892	6.3	5
0	22893	6.3	3
0	22894	6.3	5
0	22895	6.3	8
0	22896	6.3	5
0	22897	6.3	3
0	22898	6.3	5
0	22899	6.3	3
0	22900	6.3	1
0	22901	6.3	1
0	23081	6.35	3
0	23082	6.35	5
0	23083	6.35	3
0	23084	6.35	5
0	23085	6.35	8
0	23086	6.35	5
0	23087	6.35	3
0	23088	6.35	5
0	23089	6.35	3
0	23090	6.35	1
0	23091	6.35	1
0	23180	6.4	3
0	23181	6.4	5
0	23182	6.4	3
0	23183	6.4	5
0	23184	6.4	8
0	23185	6.4	5
0	23186	6.4	3
0	23187	6.4	5
0	23188	6.4	3
0	23189	6.4	1
0	23190	6.4	1
0	23192	6.4	3
0	23193	6.4	5
0	23194	6.4	3
0	23195	6.4	5
0	23196	6.4	8
0	23197	6.4	5
0	23198	6.4	3
0	23199	6.4	5
0	23200	6.4	3
0	23201	6.4	1
0	23202	6.4	1
0	23313	6.45	3
0	23314	6.45	5
0	23315	6.45	3
0	23316	6.45	5
0	23317	6.45	8
0	23318	6.45	5
0	23319	6.45	3
0	23320	6.45	5
0	23321	6.45	3
0	23322	6.45	1
0	23323	6.45	1
0	23423	6.5	3
0	23424	6.5	5
0	23425	6.5	3
0	23426	6.5	5
0	23427	6.5	8
0	23428	6.5	5
0	23429	6.5	3
0	23430	6.5	5
0	23431	6.5	3
0	23432	6.5	1
0	23433	6.5	1
0	23435	6.5	3
0	23436	6.5	5
0	23437	6.5	3
0	23438	6.5	5
0	23439	6.5	8
0	23440	6.5	5
0	23441	6.5	3
0	23442	6.5	5
0	23443	6.5	3
0	23444	6.5	1
0	23445	6.5	1
0	23584	6.55	3
0	23585	6.55	5
0	23586	6.55	3
0	23587	6.55	5
0	23588	6.55	8
0	23589	6.55	5
0	23590	6.55	3
0	23591	6.55	5
0	23592	6.55	3
0	23593	6.55	1
0	23594	6.55	1
0	23775	6.6	3
0	23776	6.6	5
0	23777	6.6	3
0	23778	6.6	5
0	23779	6.6	8
0	23780	6.6	5
0	23781	6.6	3
0	23782	6.6	5
0	23783	6.6	3
0	23784	6.6	1
0	23785	6.6	1
0	23787	6.6	3
0	23788	6.6	5
0	23789	6.6	3
0	23790	6.6	5
0	23791	6.6	8
0	23792	6.6	5
0	23793	6.6	3
0	23794	6.6	5
0	23795	6.6	3
0	23796	6.6	1
0	23797	6.6	1
0	24237	6.65	3
0	24238	6.65	5
0	24239	6.65	3
0	24240	6.65	5
0	24241	6.65	8
0	24242	6.65	5
0	24243	6.65	3
0	24244	6.65	5
0	24245	6.65	3
0	24246	6.65	1
0	24247	6.65	1
0	24528	6.7	3
0	24529	6.7	5
0	24530	6.7	3
0	24531	6.7	5
0	24532	6.7	8
0	24533	6.7	5
0	24534	6.7	3
0	24535	6.7	5
0	24536	6.7	3
0	24537	6.7	1
0	24538	6.7	1
0	24540	6.7	3
0	24541	6.7	5
0	24542	6.7	3
0	24543	6.7	5
0	24544	6.7	8
0	24545	6.7	5
0	24546	6.7	3
0	24547	6.7	5
0	24548	6.7	3
0	24549	6.7	1
0	24550	6.7	1
0	24819	6.75	3
0	24820	6.75	5
0	24821	6.75	3
0	24822	6.75	5
0	24823	6.75	8
0	24824	6.75	5
0	24825	6.75	3
0	24826	6.75	5
0	24827	6.75	3
0	24828	6.75	1
0	24829	6.75	1
0	25034	6.8	3
0	25035	6.8	5
0	25036	6.8	3
0	25037	6.8	5
0	25038	6.8	8
0	25039	6.8	5
0	25040	6.8	3
0	25041	6.8	5
0	25042	6.8	3
0	25043	6.8	1
0	25044	6.8	1
0	25046	6.8	3
0	25047	6.8	5
0	25048	6.8	3
0	25049	6.8	5
0	25050	6.8	8
0	25051	6.8	5
0	25052	6.8	3
0	25053	6.8	5
0	25054	6.8	3
0	25055	6.8	1
0	25056	6.8	1
0	25172	6.85	3
0	25173	6.85	5
0	25174	6.85	3
0	25175	6.85	5
0	25176	6.85	8
0	25177	6.85	5
0	25178	6.85	3
0	25179	6.85	5
0	25180	6.85	3
0	25181	6.85	1
0	25182	6.85	1
0	25340	6.9	3
0	25341	6.9	5
0	25342	6.9	3
0	25343	6.9	5
0	25344	6.9	8
0	25345	6.9	5
0	25346	6.9	3
0	25347	6.9	5
0	25348	6.9	3
0	25349	6.9	1
0	25350	6.9	1
0	25352	6.9	3
0	25353	6.9	5
0	25354	6.9	3
0	25355	6.9	5
0	25356	6.9	8
0	25357	6.9	5
0	25358	6.9	3
0	25359	6.9	5
0	25360	6.9	3
0	25361	6.9	1
0	25362	6.9	1
0	25473	6.95	3
0	25474	6.95	5
0	25475	6.95	3
0	25476	6.95	5
0	25477	6.95	8
0	25478	6.95	5
0	25479	6.95	3
0	25480	6.95	5
0	25481	6.95	3
0	25482	6.95	1
0	25483	6.95	1
0	25583	7	3
0	25584	7	5
0	25585	7	3
0	25586	7	5
0	25587	7	8
0	25588	7	5
0	25589	7	3
0	25590	7	5
0	25591	7	3
0	25592	7	1
0	25593	7	1
0	25595	7	3
0	25596	7	5
0	25597	7	3
0	25598	7	5
0	25599	7	8
0	25600	7	5
0	25601	7	3
0	25602	7	5
0	25603	7	3
0	25604	7	1
0	25605	7	1
0	25716	7.05	3
0	25717	7.05	5
0	25718	7.05	3
0	25719	7.05	5
0	25720	7.05	8
0	25721	7.05	5
0	25722	7.05	3
0	25723	7.05	5
0	25724	7.05	3
0	25725	7.05	1
0	25726	7.05	1
0	25866	7.1	3
0	25867	7.1	5
0	25868	7.1	3
0	25869	7.1	5
0	25870	7.1	8
0	25871	7.1	5
0	25872	7.1	3
0	25873	7.1	5
0	25874	7.1	3
0	25875	7.1	1
0	25876	7.1	1
0	25878	7.1	3
0	25879	7.1	5
0	25880	7.1	3
0	25881	7.1	5
0	25882	7.1	8
0	25883	7.1	5
0	25884	7.1	3
0	25885	7.1	5
0	25886	7.1	3
0	25887	7.1	1
0	25888	7.1	1
0	26068	7.15	3
0	26069	7.15	5
0	26070	7.15	3
0	26071	7.15	5
0	26072	7.15	8
0	26073	7.15	5
0	26074	7.15	3
0	26075	7.15	5
0	26076	7.15	3
0	26077	7.15	1
0	26078	7.15	1
0	26437	7.2	3
0	26438	7.2	5
0	26439	7.2	3
0	26440	7.2	5
0	26441	7.2	8
0	26442	7.2	5
0	26443	7.2	3
0	26444	7.2	5
0	26445	7.2	3
0	26446	7.2	1
0	26447	7.2	1
0	26449	7.2	3
0	26450	7.2	5
0	26451	7.2	3
0	26452	7.2	5
0	26453	7.2	8
0	26454	7.2	5
0	26455	7.2	3
0	26456	7.2	5
0	26457	7.2	3
0	26458	7.2	1
0	26459	7.2	1
0	26749	7.25	3
0	26750	7.25	5
0	26751	7.25	3
0	26752	7.25	5
0	26753	7.25	8
0	26754	7.25	5
0	26755	7.25	3
0	26756	7.25	5
0	26757	7.25	3
0	26758	7.25	1
0	26759	7.25	1
0	27077	7.3	3
0	27078	7.3	5
0	27079	7.3	3
0	27080	7.3	5
0	27081	7.3	8
0	27082	7.3	5
0	27083	7.3	3
0	27084	7.3	5
0	27085	7.3	3
0	27086	7.3	1
0	27087	7.3	1
0	27089	7.3	3
0	27090	7.3	5
0	27091	7.3	3
0	27092	7.3	5
0	27093	7.3	8
0	27094	7.3	5
0	27095	7.3	3
0	27096	7.3	5
0	27097	7.3	3
0	27098	7.3	1
0	27099	7.3	1
0	27395	7.35	3
0	27396	7.35	5
0	27397	7.35	3
0	27398	7.35	5
0	27399	7.35	8
0	27400	7.35	5
0	27401	7.35	3
0	27402	7.35	5
0	27403	7.35	3
0	27404	7.35	1
0	27405	7.35	1
0	27631	7.4	3
0	27632	7.4	5
0	27633	7.4	3
0	27634	7.4	5
0	27635	7.4	8
0	27636	7.4	5
0	27637	7.4	3
0	27638	7.4	5
0	27639	7.4	3
0	27640	7.4	1
0	27641	7.4	1
0	27643	7.4	3
0	27644	7.4	5
0	27645	7.4	3
0	27646	7.4	5
0	27647	7.4	8
0	27648	7.4	5
0	27649	7.4	3
0	27650	7.4	5
0	27651	7.4	3
0	27652	7.4	1
0	27653	7.4	1
0	27845	7.45	3
0	27846	7.45	5
0	27847	7.45	3
0	27848	7.45	5
0	27849	7.45	8
0	27850	7.45	5
0	27851	7.45	3
0	27852	7.45	5
0	27853	7.45	3
0	27854	7.45	1
0	27855	7.45	1
0	27944	7.5	3
0	27945	7.5	5
0	27946	7.5	3
0	27947	7.5	5
0	27948	7.5	8
0	27949	7.5	5
0	27950	7.5	3
0	27951	7.5	5
0	27952	7.5	3
0	27953	7.5	1
0	27954	7.5	1
0	27956	7.5	3
0	27957	7.5	5
0	27958	7.5	3
0	27959	7.5	5
0	27960	7.5	8
0	27961	7.5	5
0	27962	7.5	3
0	27963	7.5	5
0	27964	7.5	3
0	27965	7.5	1
0	27966	7.5	1
0	28077	7.55	3
0	28078	7.55	5
0	28079	7.55	3
0	28080	7.55	5
0	28081	7.55	8
0	28082	7.55	5
0	28083	7.55	3
0	28084	7.55	5
0	28085	7.55	3
0	28086	7.55	1
0	28087	7.55	1
0	28176	7.6	3
0	28177	7.6	5
0	28178	7.6	3
0	28179	7.6	5
0	28180	7.6	8
0	28181	7.6	5
0	28182	7.6	3
0	28183	7.6	5
0	28184	7.6	3
0	28185	7.6	1
0	28186	7.6	1
0	28188	7.6	3
0	28189	7.6	5
0	28190	7.6	3
0	28191	7.6	5
0	28192	7.6	8
0	28193	7.6	5
0	28194	7.6	3
0	28195	7.6	5
0	28196	7.6	3
0	28197	7.6	1
0	28198	7.6	1
0	28355	7.65	3
0	28356	7.65	5
0	28357	7.65	3
0	28358	7.65	5
0	28359	7.65	8
0	28360	7.65	5
0	28361	7.65	3
0	28362	7.65	5
0	28363	7.65	3
0	28364	7.65	1
0	28365	7.65	1
0	28459	7.7	3
0	28460	7.7	5
0	28461	7.7	3
0	28462	7.7	5
0	28463	7.7	8
0	28464	7.7	5
0	28465	7.7	3
0	28466	7.7	5
0	28467	7.7	3
0	28468	7.7	1
0	28469	7.7	1
0	28471	7.7	3
0	28472	7.7	5
0	28473	7.7	3
0	28474	7.7	5
0	28475	7.7	8
0	28476	7.7	5
0	28477	7.7	3
0	28478	7.7	5
0	28479	7.7	3
0	28480	7.7	1
0	28481	7.7	1
0	28840	7.75	3
0	28841	7.75	5
0	28842	7.75	3
0	28843	7.75	5
0	28844	7.75	8
0	28845	7.75	5
0	28846	7.75	3
0	28847	7.75	5
0	28848	7.75	3
0	28849	7.75	1
0	28850	7.75	1
0	29040	7.8	3
0	29041	7.8	5
0	29042	7.8	3
0	29043	7.8	5
0	29044	7.8	8
0	29045	7.8	5
0	29046	7.8	3
0	29047	7.8	5
0	29048	7.8	3
0	29049	7.8	1
0	29050	7.8	1
0	29052	7.8	3
0	29053	7.8	5
0	29054	7.8	3
0	29055	7.8	5
0	29056	7.8	8
0	29057	7.8	5
0	29058	7.8	3
0	29059	7.8	5
0	29060	7.8	3
0	29061	7.8	1
0	29062	7.8	1
0	29219	7.85	3
0	29220	7.85	5
0	29221	7.85	3
0	29222	7.85	5
0	29223	7.85	8
0	29224	7.85	5
0	29225	7.85	3
0	29226	7.85	5
0	29227	7.85	3
0	29228	7.85	1
0	29229	7.85	1
0	29488	7.9	3
0	29489	7.9	5
0	29490	7.9	3
0	29491	7.9	5
0	29492	7.9	8
0	29493	7.9	5
0	29494	7.9	3
0	29495	7.9	5
0	29496	7.9	3
0	29497	7.9	1
0	29498	7.9	1
0	29500	7.9	3
0	29501	7.9	5
0	29502	7.9	3
0	29503	7.9	5
0	29504	7.9	8
0	29505	7.9	5
0	29506	7.9	3
0	29507	7.9	5
0	29508	7.9	3
0	29509	7.9	1
0	29510	7.9	1
0	29629	7.95	3
0	29630	7.95	5
0	29631	7.95	3
0	29632	7.95	5
0	29633	7.95	8
0	29634	7.95	5
0	29635	7.95	3
0	29636	7.95	5
0	29637	7.95	3
0	29638	7.95	1
0	29639	7.95	1
0	29797	8	3
0	29798	8	5
0	29799	8	3
0	29800	8	5
0	29801	8	8
0	29802	8	5
0	29803	8	3
0	29804	8	5
0	29805	8	3
0	29806	8	1
0	29807	8	1
0	29809	8	3
0	29810	8	5
0	29811	8	3
0	29812	8	5
0	29813	8	8
0	29814	8	5
0	29815	8	3
0	29816	8	5
0	29817	8	3
0	29818	8	1
0	29819	8	1
0	29930	8.05	3
0	29931	8.05	5
0	29932	8.05	3
0	29933	8.05	5
0	29934	8.05	8
0	29935	8.05	5
0	29936	8.05	3
0	29937	8.05	5
0	29938	8.05	3
0	29939	8.05	1
0	29940	8.05	1
0	30040	8.1	3
0	30041	8.1	5
0	30042	8.1	3
0	30043	8.1	5
0	30044	8.1	8
0	30045	8.1	5
0	30046	8.1	3
0	30047	8.1	5
0	30048	8.1	3
0	30049	8.1	1
0	30050	8.1	1
0	30052	8.1	3
0	30053	8.1	5
0	30054	8.1	3
0	30055	8.1	5
0	30056	8.1	8
0	30057	8.1	5
0	30058	8.1	3
0	30059	8.1	5
0	30060	8.1	3
0	30061	8.1	1
0	30062	8.1	1
0	30186	8.15	3
0	30187	8.15	5
0	30188	8.15	3
0	30189	8.15	5
0	30190	8.15	8
0	30191	8.15	5
0	30192	8.15	3
0	30193	8.15	5
0	30194	8.15	3
0	30195	8.15	1
0	30196	8.15	1
0	30354	8.2	3
0	30355	8.2	5
0	30356	8.2	3
0	30357	8.2	5
0	30358	8.2	8
0	30359	8.2	5
0	30360	8.2	3
0	30361	8.2	5
0	30362	8.2	3
0	30363	8.2	1
0	30364	8.2	1
0	30366	8.2	3
0	30367	8.2	5
0	30368	8.2	3
0	30369	8.2	5
0	30370	8.2	8
0	30371	8.2	5
0	30372	8.2	3
0	30373	8.2	5
0	30374	8.2	3
0	30375	8.2	1
0	30376	8.2	1
0	30487	8.25	3
0	30488	8.25	5
0	30489	8.25	3
0	30490	8.25	5
0	30491	8.25	8
0	30492	8.25	5
0	30493	8.25	3
0	30494	8.25	5
0	30495	8.25	3
0	30496	8.25	1
0	30497	8.25	1
0	30832	8.3	3
0	30833	8.3	5
0	30834	8.3	3
0	30835	8.3	5
0	30836	8.3	8
0	30837	8.3	5
0	30838	8.3	3
0	30839	8.3	5
0	30840	8.3	3
0	30841	8.3	1
0	30842	8.3	1
0	30844	8.3	3
0	30845	8.3	5
0	30846	8.3	3
0	30847	8.3	5
0	30848	8.3	8
0	30849	8.3	5
0	30850	8.3	3
0	30851	8.3	5
0	30852	8.3	3
0	30853	8.3	1
0	30854	8.3	1
0	31133	8.35	3
0	31134	8.35	5
0	31135	8.35	3
0	31136	8.35	5
0	31137	8.35	8
0	31138	8.35	5
0	31139	8.35	3
0	31140	8.35	5
0	31141	8.35	3
0	31142	8.35	1
0	31143	8.35	1
0	31279	8.4	3
0	31280	8.4	5
0	31281	8.4	3
0	31282	8.4	5
0	31283	8.4	8
0	31284	8.4	5
0	31285	8.4	3
0	31286	8.4	5
0	31287	8.4	3
0	31288	8.4	1
0	31289	8.4	1
0	31291	8.4	3
0	31292	8.4	5
0	31293	8.4	3
0	31294	8.4	5
0	31295	8.4	8
0	31296	8.4	5
0	31297	8.4	3
0	31298	8.4	5
0	31299	8.4	3
0	31300	8.4	1
0	31301	8.4	1
0	31584	8.45	3
0	31585	8.45	5
0	31586	8.45	3
0	31587	8.45	5
0	31588	8.45	8
0	31589	8.45	5
0	31590	8.45	3
0	31591	8.45	5
0	31592	8.45	3
0	31593	8.45	1
0	31594	8.45	1
0	31750	8.5	3
0	31751	8.5	5
0	31752	8.5	3
0	31753	8.5	5
0	31754	8.5	8
0	31755	8.5	5
0	31756	8.5	3
0	31757	8.5	5
0	31758	8.5	3
0	31759	8.5	1
0	31760	8.5	1
0	31762	8.5	3
0	31763	8.5	5
0	31764	8.5	3
0	31765	8.5	5
0	31766	8.5	8
0	31767	8.5	5
0	31768	8.5	3
0	31769	8.5	5
0	31770	8.5	3
0	31771	8.5	1
0	31772	8.5	1
0	31973	8.55	3
0	31974	8.55	5
0	31975	8.55	3
0	31976	8.55	5
0	31977	8.55	8
0	31978	8.55	5
0	31979	8.55	3
0	31980	8.55	5
0	31981	8.55	3
0	31982	8.55	1
0	31983	8.55	1
0	32072	8.6	3
0	32073	8.6	5
0	32074	8.6	3
0	32075	8.6	5
0	32076	8.6	8
0	32077	8.6	5
0	32078	8.6	3
0	32079	8.6	5
0	32080	8.6	3
0	32081	8.6	1
0	32082	8.6	1
0	32084	8.6	3
0	32085	8.6	5
0	32086	8.6	3
0	32087	8.6	5
0	32088	8.6	8
0	32089	8.6	5
0	32090	8.6	3
0	32091	8.6	5
0	32092	8.6	3
0	32093	8.6	1
0	32094	8.6	1
0	32205	8.65	3
0	32206	8.65	5
0	32207	8.65	3
0	32208	8.65	5
0	32209	8.65	8
0	32210	8.65	5
0	32211	8.65	3
0	32212	8.65	5
0	32213	8.65	3
0	32214	8.65	1
0	32215	8.65	1
0	32332	8.7	3
0	32333	8.7	5
0	32334	8.7	3
0	32335	8.7	5
0	32336	8.7	8
0	32337	8.7	5
0	32338	8.7	3
0	32339	8.7	5
0	32340	8.7	3
0	32341	8.7	1
0	32342	8.7	1
0	32344	8.7	3
0	32345	8.7	5
0	32346	8.7	3
0	32347	8.7	5
0	32348	8.7	8
0	32349	8.7	5
0	32350	8.7	3
0	32351	8.7	5
0	32352	8.7	3
0	32353	8.7	1
0	32354	8.7	1
0	32534	8.75	3
0	32535	8.75	5
0	32536	8.75	3
0	32537	8.75	5
0	32538	8.75	8
0	32539	8.75	5
0	32540	8.75	3
0	32541	8.75	5
0	32542	8.75	3
0	32543	8.75	1
0	32544	8.75	1
0	32656	8.8	3
0	32657	8.8	5
0	32658	8.8	3
0	32659	8.8	5
0	32660	8.8	8
0	32661	8.8	5
0	32662	8.8	3
0	32663	8.8	5
0	32664	8.8	3
0	32665	8.8	1
0	32666	8.8	1
0	32668	8.8	3
0	32669	8.8	5
0	32670	8.8	3
0	32671	8.8	5
0	32672	8.8	8
0	32673	8.8	5
0	32674	8.8	3
0	32675	8.8	5
0	32676	8.8	3
0	32677	8.8	1
0	32678	8.8	1
0	33013	8.85	3
0	33014	8.85	5
0	33015	8.85	3
0	33016	8.85	5
0	33017	8.85	8
0	33018	8.85	5
0	33019	8.85	3
0	33020	8.85	5
0	33021	8.85	3
0	33022	8.85	1
0	33023	8.85	1
0	33266	8.9	3
0	33267	8.9	5
0	33268	8.9	3
0	33269	8.9	5
0	33270	8.9	8
0	33271	8.9	5
0	33272	8.9	3
0	33273	8.9	5
0	33274	8.9	3
0	33275	8.9	1
0	33276	8.9	1
0	33278	8.9	3
0	33279	8.9	5
0	33280	8.9	3
0	33281	8.9	5
0	33282	8.9	8
0	33283	8.9	5
0	33284	8.9	3
0	33285	8.9	5
0	33286	8.9	3
0	33287	8.9	1
0	33288	8.9	1
0	33462	8.95	3
0	33463	8.95	5
0	33464	8.95	3
0	33465	8.95	5
0	33466	8.95	8
0	33467	8.95	5
0	33468	8.95	3
0	33469	8.95	5
0	33470	8.95	3
0	33471	8.95	1
0	33472	8.95	1
0	33676	9	3
0	33677	9	5
0	33678	9	3
0	33679	9	5
0	33680	9	8
0	33681	9	5
0	33682	9	3
0	33683	9	5
0	33684	9	3
0	33685	9	1
0	33686	9	1
0	33688	9	3
0	33689	9	5
0	33690	9	3
0	33691	9	5
0	33692	9	8
0	33693	9	5
0	33694	9	3
0	33695	9	5
0	33696	9	3
0	33697	9	1
0	33698	9	1
0	33860	9.05	3
0	33861	9.05	5
0	33862	9.05	3
0	33863	9.05	5
0	33864	9.05	8
0	33865	9.05	5
0	33866	9.05	3
0	33867	9.05	5
0	33868	9.05	3
0	33869	9.05	1
0	33870	9.05	1
0	34039	9.1	3
0	34040	9.1	5
0	34041	9.1	3
0	34042	9.1	5
0	34043	9.1	8
0	34044	9.1	5
0	34045	9.1	3
0	34046	9.1	5
0	34047	9.1	3
0	34048	9.1	1
0	34049	9.1	1
0	34051	9.1	3
0	34052	9.1	5
0	34053	9.1	3
0	34054	9.1	5
0	34055	9.1	8
0	34056	9.1	5
0	34057	9.1	3
0	34058	9.1	5
0	34059	9.1	3
0	34060	9.1	1
0	34061	9.1	1
0	34185	9.15	3
0	34186	9.15	5
0	34187	9.15	3
0	34188	9.15	5
0	34189	9.15	8
0	34190	9.15	5
0	34191	9.15	3
0	34192	9.15	5
0	34193	9.15	3
0	34194	9.15	1
0	34195	9.15	1
0	34284	9.2	3
0	34285	9.2	5
0	34286	9.2	3
0	34287	9.2	5
0	34288	9.2	8
0	34289	9.2	5
0	34290	9.2	3
0	34291	9.2	5
0	34292	9.2	3
0	34293	9.2	1
0	34294	9.2	1
0	34296	9.2	3
0	34297	9.2	5
0	34298	9.2	3
0	34299	9.2	5
0	34300	9.2	8
0	34301	9.2	5
0	34302	9.2	3
0	34303	9.2	5
0	34304	9.2	3
0	34305	9.2	1
0	34306	9.2	1
0	34445	9.25	3
0	34446	9.25	5
0	34447	9.25	3
0	34448	9.25	5
0	34449	9.25	8
0	34450	9.25	5
0	34451	9.25	3
0	34452	9.25	5
0	34453	9.25	3
0	34454	9.25	1
0	34455	9.25	1
0	34595	9.3	3
0	34596	9.3	5
0	34597	9.3	3
0	34598	9.3	5
0	34599	9.3	8
0	34600	9.3	5
0	34601	9.3	3
0	34602	9.3	5
0	34603	9.3	3
0	34604	9.3	1
0	34605	9.3	1
0	34607	9.3	3
0	34608	9.3	5
0	34609	9.3	3
0	34610	9.3	5
0	34611	9.3	8
0	34612	9.3	5
0	34613	9.3	3
0	34614	9.3	5
0	34615	9.3	3
0	34616	9.3	1
0	34617	9.3	1
0	34751	9.35	3
0	34752	9.35	5
0	34753	9.35	3
0	34754	9.35	5
0	34755	9.35	8
0	34756	9.35	5
0	34757	9.35	3
0	34758	9.35	5
0	34759	9.35	3
0	34760	9.35	1
0	34761	9.35	1
0	35075	9.4	3
0	35076	9.4	5
0	35077	9.4	3
0	35078	9.4	5
0	35079	9.4	8
0	35080	9.4	5
0	35081	9.4	3
0	35082	9.4	5
0	35083	9.4	3
0	35084	9.4	1
0	35085	9.4	1
0	35087	9.4	3
0	35088	9.4	5
0	35089	9.4	3
0	35090	9.4	5
0	35091	9.4	8
0	35092	9.4	5
0	35093	9.4	3
0	35094	9.4	5
0	35095	9.4	3
0	35096	9.4	1
0	35097	9.4	1
0	35459	9.45	3
0	35460	9.45	5
0	35461	9.45	3
0	35462	9.45	5
0	35463	9.45	8
0	35464	9.45	5
0	35465	9.45	3
0	35466	9.45	5
0	35467	9.45	3
0	35468	9.45	1
0	35469	9.45	1
0	35705	9.5	3
0	35706	9.5	5
0	35707	9.5	3
0	35708	9.5	5
0	35709	9.5	8
0	35710	9.5	5
0	35711	9.5	3
0	35712	9.5	5
0	35713	9.5	3
0	35714	9.5	1
0	35715	9.5	1
0	35717	9.5	3
0	35718	9.5	5
0	35719	9.5	3
0	35720	9.5	5
0	35721	9.5	8
0	35722	9.5	5
0	35723	9.5	3
0	35724	9.5	5
0	35725	9.5	3
0	35726	9.5	1
0	35727	9.5	1
0	35947	9.55	3
0	35948	9.55	5
0	35949	9.55	3
0	35950	9.55	5
0	35951	9.55	8
0	35952	9.55	5
0	35953	9.55	3
0	35954	9.55	5
0	35955	9.55	3
0	35956	9.55	1
0	35957	9.55	1
0	36115	9.6	3
0	36116	9.6	5
0	36117	9.6	3
0	36118	9.6	5
0	36119	9.6	8
0	36120	9.6	5
0	36121	9.6	3
0	36122	9.6	5
0	36123	9.6	3
0	36124	9.6	1
0	36125	9.6	1
0	36127	9.6	3
0	36128	9.6	5
0	36129	9.6	3
0	36130	9.6	5
0	36131	9.6	8
0	36132	9.6	5
0	36133	9.6	3
0	36134	9.6	5
0	36135	9.6	3
0	36136	9.6	1
0	36137	9.6	1
0	36317	9.65	3
0	36318	9.65	5
0	36319	9.65	3
0	36320	9.65	5
0	36321	9.65	8
0	36322	9.65	5
0	36323	9.65	3
0	36324	9.65	5
0	36325	9.65	3
0	36326	9.65	1
0	36327	9.65	1
0	36416	9.7	3
0	36417	9.7	5
0	36418	9.7	3
0	36419	9.7	5
0	36420	9.7	8
0	36421	9.7	5
0	36422	9.7	3
0	36423	9.7	5
0	36424	9.7	3
0	36425	9.7	1
0	36426	9.7	1
0	36428	9.7	3
0	36429	9.7	5
0	36430	9.7	3
0	36431	9.7	5
0	36432	9.7	8
0	36433	9.7	5
0	36434	9.7	3
0	36435	9.7	5
0	36436	9.7	3
0	36437	9.7	1
0	36438	9.7	1
0	36572	9.75	3
0	36573	9.75	5
0	36574	9.75	3
0	36575	9.75	5
0	36576	9.75	8
0	36577	9.75	5
0	36578	9.75	3
0	36579	9.75	5
0	36580	9.75	3
0	36581	9.75	1
0	36582	9.75	1
0	36676	9.8	3
0	36677	9.8	5
0	36678	9.8	3
0	36679	9.8	5
0	36680	9.8	8
0	36681	9.8	5
0	36682	9.8	3
0	36683	9.8	5
0	36684	9.8	3
0	36685	9.8	1
0	36686	9.8	1
0	36688	9.8	3
0	36689	9.8	5
0	36690	9.8	3
0	36691	9.8	5
0	36692	9.8	8
0	36693	9.8	5
0	36694	9.8	3
0	36695	9.8	5
0	36696	9.8	3
0	36697	9.8	1
0	36698	9.8	1
0	36855	9.85	3
0	36856	9.85	5
0	36857	9.85	3
0	36858	9.85	5
0	36859	9.85	8
0	36860	9.85	5
0	36861	9.85	3
0	36862	9.85	5
0	36863	9.85	3
0	36864	9.85	1
0	36865	9.85	1
0	36994	9.9	3
0	36995	9.9	5
0	36996	9.9	3
0	36997	9.9	5
0	36998	9.9	8
0	36999	9.9	5
0	37000	9.9	3
0	37001	9.9	5
0	37002	9.9	3
0	37003	9.9	1
0	37004	9.9	1
0	37006	9.9	3
0	37007	9.9	5
0	37008	9.9	3
0	37009	9.9	5
0	37010	9.9	8
0	37011	9.9	5
0	37012	9.9	3
0	37013	9.9	5
0	37014	9.9	3
0	37015	9.9	1
0	37016	9.9	1
0	37295	9.95	3
0	37296	9.95	5
0	37297	9.95	3
0	37298	9.95	5
0	37299	9.95	8
0	37300	9.95	5
0	37301	9.95	3
0	37302	9.95	5
0	37303	9.95	3
0	37304	9.95	1
0	37305	9.95	1
0	37498	10	3
0	37499	10	5
0	37500	10	3
0	37501	10	5
0	37502	10	8
0	37503	10	5
0	37504	10	3
0	37505	10	5
0	37506	10	3
0	37507	10	1
0	37508	10	1
0	37510	10	3
0	37511	10	5
0	37512	10	3
0	37513	10	5
0	37514	10	8
0	37515	10	5
0	37516	10	3
0	37517	10	5
0	37518	10	3
0	37519	10	1
0	37520	10	1
0	37723	10.05	3
0	37724	10.05	5
0	37725	10.05	3
0	37726	10.05	5
0	37727	10.05	8
0	37728	10.05	5
0	37729	10.05	3
0	37730	10.05	5
0	37731	10.05	3
0	37732	10.05	1
0	37733	10.05	1
0	37947	10.1	3
0	37948	10.1	5
0	37949	10.1	3
0	37950	10.1	5
0	37951	10.1	8
0	37952	10.1	5
0	37953	10.1	3
0	37954	10.1	5
0	37955	10.1	3
0	37956	10.1	1
0	37957	10.1	1
0	37959	10.1	3
0	37960	10.1	5
0	37961	10.1	3
0	37962	10.1	5
0	37963	10.1	8
0	37964	10.1	5
0	37965	10.1	3
0	37966	10.1	5
0	37967	10.1	3
0	37968	10.1	1
0	37969	10.1	1
0	38162	10.15	3
0	38163	10.15	5
0	38164	10.15	3
0	38165	10.15	5
0	38166	10.15	8
0	38167	10.15	5
0	38168	10.15	3
0	38169	10.15	5
0	38170	10.15	3
0	38171	10.15	1
0	38172	10.15	1
0	38330	10.2	3
0	38331	10.2	5
0	38332	10.2	3
0	38333	10.2	5
0	38334	10.2	8
0	38335	10.2	5
0	38336	10.2	3
0	38337	10.2	5
0	38338	10.2	3
0	38339	10.2	1
0	38340	10.2	1
0	38342	10.2	3
0	38343	10.2	5
0	38344	10.2	3
0	38345	10.2	5
0	38346	10.2	8
0	38347	10.2	5
0	38348	10.2	3
0	38349	10.2	5
0	38350	10.2	3
0	38351	10.2	1
0	38352	10.2	1
0	38463	10.25	3
0	38464	10.25	5
0	38465	10.25	3
0	38466	10.25	5
0	38467	10.25	8
0	38468	10.25	5
0	38469	10.25	3
0	38470	10.25	5
0	38471	10.25	3
0	38472	10.25	1
0	38473	10.25	1
0	38567	10.3	3
0	38568	10.3	5
0	38569	10.3	3
0	38570	10.3	5
0	38571	10.3	8
0	38572	10.3	5
0	38573	10.3	3
0	38574	10.3	5
0	38575	10.3	3
0	38576	10.3	1
0	38577	10.3	1
0	38579	10.3	3
0	38580	10.3	5
0	38581	10.3	3
0	38582	10.3	5
0	38583	10.3	8
0	38584	10.3	5
0	38585	10.3	3
0	38586	10.3	5
0	38587	10.3	3
0	38588	10.3	1
0	38589	10.3	1
0	38700	10.35	3
0	38701	10.35	5
0	38702	10.35	3
0	38703	10.35	5
0	38704	10.35	8
0	38705	10.35	5
0	38706	10.35	3
0	38707	10.35	5
0	38708	10.35	3
0	38709	10.35	1
0	38710	10.35	1
0	38822	10.4	3
0	38823	10.4	5
0	38824	10.4	3
0	38825	10.4	5
0	38826	10.4	8
0	38827	10.4	5
0	38828	10.4	3
0	38829	10.4	5
0	38830	10.4	3
0	38831	10.4	1
0	38832	10.4	1
0	38834	10.4	3
0	38835	10.4	5
0	38836	10.4	3
0	38837	10.4	5
0	38838	10.4	8
0	38839	10.4	5
0	38840	10.4	3
0	38841	10.4	5
0	38842	10.4	3
0	38843	10.4	1
0	38844	10.4	1
0	38977	10.45	3
0	38978	10.45	5
0	38979	10.45	3
0	38980	10.45	5
0	38981	10.45	8
0	38982	10.45	5
0	38983	10.45	3
0	38984	10.45	5
0	38985	10.45	3
0	38986	10.45	1
0	38987	10.45	1
0	39265	10.5	3
0	39266	10.5	5
0	39267	10.5	3
0	39268	10.5	5
0	39269	10.5	8
0	39270	10.5	5
0	39271	10.5	3
0	39272	10.5	5
0	39273	10.5	3
0	39274	10.5	1
0	39275	10.5	1
0	39277	10.5	3
0	39278	10.5	5
0	39279	10.5	3
0	39280	10.5	5
0	39281	10.5	8
0	39282	10.5	5
0	39283	10.5	3
0	39284	10.5	5
0	39285	10.5	3
0	39286	10.5	1
0	39287	10.5	1
0	39472	10.55	3
0	39473	10.55	5
0	39474	10.55	3
0	39475	10.55	5
0	39476	10.55	8
0	39477	10.55	5
0	39478	10.55	3
0	39479	10.55	5
0	39480	10.55	3
0	39481	10.55	1
0	39482	10.55	1
0	39694	10.6	3
0	39695	10.6	5
0	39696	10.6	3
0	39697	10.6	5
0	39698	10.6	8
0	39699	10.6	5
0	39700	10.6	3
0	39701	10.6	5
0	39702	10.6	3
0	39703	10.6	1
0	39704	10.6	1
0	39706	10.6	3
0	39707	10.6	5
0	39708	10.6	3
0	39709	10.6	5
0	39710	10.6	8
0	39711	10.6	5
0	39712	10.6	3
0	39713	10.6	5
0	39714	10.6	3
0	39715	10.6	1
0	39716	10.6	1
0	40077	10.65	3
0	40078	10.65	5
0	40079	10.65	3
0	40080	10.65	5
0	40081	10.65	8
0	40082	10.65	5
0	40083	10.65	3
0	40084	10.65	5
0	40085	10.65	3
0	40086	10.65	1
0	40087	10.65	1
0	40279	10.7	3
0	40280	10.7	5
0	40281	10.7	3
0	40282	10.7	5
0	40283	10.7	8
0	40284	10.7	5
0	40285	10.7	3
0	40286	10.7	5
0	40287	10.7	3
0	40288	10.7	1
0	40289	10.7	1
0	40291	10.7	3
0	40292	10.7	5
0	40293	10.7	3
0	40294	10.7	5
0	40295	10.7	8
0	40296	10.7	5
0	40297	10.7	3
0	40298	10.7	5
0	40299	10.7	3
0	40300	10.7	1
0	40301	10.7	1
0	40475	10.75	3
0	40476	10.75	5
0	40477	10.75	3
0	40478	10.75	5
0	40479	10.75	8
0	40480	10.75	5
0	40481	10.75	3
0	40482	10.75	5
0	40483	10.75	3
0	40484	10.75	1
0	40485	10.75	1
0	40574	10.8	3
0	40575	10.8	5
0	40576	10.8	3
0	40577	10.8	5
0	40578	10.8	8
0	40579	10.8	5
0	40580	10.8	3
0	40581	10.8	5
0	40582	10.8	3
0	40583	10.8	1
0	40584	10.8	1
0	40586	10.8	3
0	40587	10.8	5
0	40588	10.8	3
0	40589	10.8	5
0	40590	10.8	8
0	40591	10.8	5
0	40592	10.8	3
0	40593	10.8	5
0	40594	10.8	3
0	40595	10.8	1
0	40596	10.8	1
0	40707	10.85	3
0	40708	10.85	5
0	40709	10.85	3
0	40710	10.85	5
0	40711	10.85	8
0	40712	10.85	5
0	40713	10.85	3
0	40714	10.85	5
0	40715	10.85	3
0	40716	10.85	1
0	40717	10.85	1
0	40806	10.9	3
0	40807	10.9	5
0	40808	10.9	3
0	40809	10.9	5
0	40810	10.9	8
0	40811	10.9	5
0	40812	10.9	3
0	40813	10.9	5
0	40814	10.9	3
0	40815	10.9	1
0	40816	10.9	1
0	40818	10.9	3
0	40819	10.9	5
0	40820	10.9	3
0	40821	10.9	5
0	40822	10.9	8
0	40823	10.9	5
0	40824	10.9	3
0	40825	10.9	5
0	40826	10.9	3
0	40827	10.9	1
0	40828	10.9	1
0	40956	10.95	3
0	40957	10.95	5
0	40958	10.95	3
0	40959	10.95	5
0	40960	10.95	8
0	40961	10.95	5
0	40962	10.95	3
0	40963	10.95	5
0	40964	10.95	3
0	40965	10.95	1
0	40966	10.95	1
0	41078	11	3
0	41079	11	5
0	41080	11	3
0	41081	11	5
0	41082	11	8
0	41083	11	5
0	41084	11	3
0	41085	11	5
0	41086	11	3
0	41087	11	1
0	41088	11	1
0	41090	11	3
0	41091	11	5
0	41092	11	3
0	41093	11	5
0	41094	11	8
0	41095	11	5
0	41096	11	3
0	41097	11	5
0	41098	11	3
0	41099	11	1
0	41100	11	1
0	41417	11.05	3
0	41418	11.05	5
0	41419	11.05	3
0	41420	11.05	5
0	41421	11.05	8
0	41422	11.05	5
0	41423	11.05	3
0	41424	11.05	5
0	41425	11.05	3
0	41426	11.05	1
0	41427	11.05	1
0	41646	11.1	3
0	41647	11.1	5
0	41648	11.1	3
0	41649	11.1	5
0	41650	11.1	8
0	41651	11.1	5
0	41652	11.1	3
0	41653	11.1	5
0	41654	11.1	3
0	41655	11.1	1
0	41656	11.1	1
0	41658	11.1	3
0	41659	11.1	5
0	41660	11.1	3
0	41661	11.1	5
0	41662	11.1	8
0	41663	11.1	5
0	41664	11.1	3
0	41665	11.1	5
0	41666	11.1	3
0	41667	11.1	1
0	41668	11.1	1
0	41922	11.15	3
0	41923	11.15	5
0	41924	11.15	3
0	41925	11.15	5
0	41926	11.15	8
0	41927	11.15	5
0	41928	11.15	3
0	41929	11.15	5
0	41930	11.15	3
0	41931	11.15	1
0	41932	11.15	1
0	42137	11.2	3
0	42138	11.2	5
0	42139	11.2	3
0	42140	11.2	5
0	42141	11.2	8
0	42142	11.2	5
0	42143	11.2	3
0	42144	11.2	5
0	42145	11.2	3
0	42146	11.2	1
0	42147	11.2	1
0	42149	11.2	3
0	42150	11.2	5
0	42151	11.2	3
0	42152	11.2	5
0	42153	11.2	8
0	42154	11.2	5
0	42155	11.2	3
0	42156	11.2	5
0	42157	11.2	3
0	42158	11.2	1
0	42159	11.2	1
0	42293	11.25	3
0	42294	11.25	5
0	42295	11.25	3
0	42296	11.25	5
0	42297	11.25	8
0	42298	11.25	5
0	42299	11.25	3
0	42300	11.25	5
0	42301	11.25	3
0	42302	11.25	1
0	42303	11.25	1
0	42455	11.3	3
0	42456	11.3	5
0	42457	11.3	3
0	42458	11.3	5
0	42459	11.3	8
0	42460	11.3	5
0	42461	11.3	3
0	42462	11.3	5
0	42463	11.3	3
0	42464	11.3	1
0	42465	11.3	1
0	42467	11.3	3
0	42468	11.3	5
0	42469	11.3	3
0	42470	11.3	5
0	42471	11.3	8
0	42472	11.3	5
0	42473	11.3	3
0	42474	11.3	5
0	42475	11.3	3
0	42476	11.3	1
0	42477	11.3	1
0	42588	11.35	3
0	42589	11.35	5
0	42590	11.35	3
0	42591	11.35	5
0	42592	11.35	8
0	42593	11.35	5
0	42594	11.35	3
0	42595	11.35	5
0	42596	11.35	3
0	42597	11.35	1
0	42598	11.35	1
0	42687	11.4	3
0	42688	11.4	5
0	42689	11.4	3
0	42690	11.4	5
0	42691	11.4	8
0	42692	11.4	5
0	42693	11.4	3
0	42694	11.4	5
0	42695	11.4	3
0	42696	11.4	1
0	42697	11.4	1
0	42699	11.4	3
0	42700	11.4	5
0	42701	11.4	3
0	42702	11.4	5
0	42703	11.4	8
0	42704	11.4	5
0	42705	11.4	3
0	42706	11.4	5
0	42707	11.4	3
0	42708	11.4	1
0	42709	11.4	1
0	42843	11.45	3
0	42844	11.45	5
0	42845	11.45	3
0	42846	11.45	5
0	42847	11.45	8
0	42848	11.45	5
0	42849	11.45	3
0	42850	11.45	5
0	42851	11.45	3
0	42852	11.45	1
0	42853	11.45	1
0	42965	11.5	3
0	42966	11.5	5
0	42967	11.5	3
0	42968	11.5	5
0	42969	11.5	8
0	42970	11.5	5
0	42971	11.5	3
0	42972	11.5	5
0	42973	11.5	3
0	42974	11.5	1
0	42975	11.5	1
0	42977	11.5	3
0	42978	11.5	5
0	42979	11.5	3
0	42980	11.5	5
0	42981	11.5	8
0	42982	11.5	5
0	42983	11.5	3
0	42984	11.5	5
0	42985	11.5	3
0	42986	11.5	1
0	42987	11.5	1
0	43144	11.55	3
0	43145	11.55	5
0	43146	11.55	3
0	43147	11.55	5
0	43148	11.55	8
0	43149	11.55	5
0	43150	11.55	3
0	43151	11.55	5
0	43152	11.55	3
0	43153	11.55	1
0	43154	11.55	1
0	43413	11.6	3
0	43414	11.6	5
0	43415	11.6	3
0	43416	11.6	5
0	43417	11.6	8
0	43418	11.6	5
0	43419	11.6	3
0	43420	11.6	5
0	43421	11.6	3
0	43422	11.6	1
0	43423	11.6	1
0	43425	11.6	3
0	43426	11.6	5
0	43427	11.6	3
0	43428	11.6	5
0	43429	11.6	8
0	43430	11.6	5
0	43431	11.6	3
0	43432	11.6	5
0	43433	11.6	3
0	43434	11.6	1
0	43435	11.6	1
0	43618	11.65	3
0	43619	11.65	5
0	43620	11.65	3
0	43621	11.65	5
0	43622	11.65	8
0	43623	11.65	5
0	43624	11.65	3
0	43625	11.65	5
0	43626	11.65	3
0	43627	11.65	1
0	43628	11.65	1
0	43809	11.7	3
0	43810	11.7	5
0	43811	11.7	3
0	43812	11.7	5
0	43813	11.7	8
0	43814	11.7	5
0	43815	11.7	3
0	43816	11.7	5
0	43817	11.7	3
0	43818	11.7	1
0	43819	11.7	1
0	43821	11.7	3
0	43822	11.7	5
0	43823	11.7	3
0	43824	11.7	5
0	43825	11.7	8
0	43826	11.7	5
0	43827	11.7	3
0	43828	11.7	5
0	43829	11.7	3
0	43830	11.7	1
0	43831	11.7	1
0	44109	11.75	3
0	44110	11.75	5
0	44111	11.75	3
0	44112	11.75	5
0	44113	11.75	8
0	44114	11.75	5
0	44115	11.75	3
0	44116	11.75	5
0	44117	11.75	3
0	44118	11.75	1
0	44119	11.75	1
0	44281	11.8	3
0	44282	11.8	5
0	44283	11.8	3
0	44284	11.8	5
0	44285	11.8	8
0	44286	11.8	5
0	44287	11.8	3
0	44288	11.8	5
0	44289	11.8	3
0	44290	11.8	1
0	44291	11.8	1
0	44293	11.8	3
0	44294	11.8	5
0	44295	11.8	3
0	44296	11.8	5
0	44297	11.8	8
0	44298	11.8	5
0	44299	11.8	3
0	44300	11.8	5
0	44301	11.8	3
0	44302	11.8	1
0	44303	11.8	1
0	44460	11.85	3
0	44461	11.85	5
0	44462	11.85	3
0	44463	11.85	5
0	44464	11.85	8
0	44465	11.85	5
0	44466	11.85	3
0	44467	11.85	5
0	44468	11.85	3
0	44469	11.85	1
0	44470	11.85	1
0	44582	11.9	3
0	44583	11.9	5
0	44584	11.9	3
0	44585	11.9	5
0	44586	11.9	8
0	44587	11.9	5
0	44588	11.9	3
0	44589	11.9	5
0	44590	11.9	3
0	44591	11.9	1
0	44592	11.9	1
0	44594	11.9	3
0	44595	11.9	5
0	44596	11.9	3
0	44597	11.9	5
0	44598	11.9	8
0	44599	11.9	5
0	44600	11.9	3
0	44601	11.9	5
0	44602	11.9	3
0	44603	11.9	1
0	44604	11.9	1
0	44715	11.95	3
0	44716	11.95	5
0	44717	11.95	3
0	44718	11.95	5
0	44719	11.95	8
0	44720	11.95	5
0	44721	11.95	3
0	44722	11.95	5
0	44723	11.95	3
0	44724	11.95	1
0	44725	11.95	1
0	44842	12	3
0	44843	12	5
0	44844	12	3
0	44845	12	5
0	44846	12	8
0	44847	12	5
0	44848	12	3
0	44849	12	5
0	44850	12	3
0	44851	12	1
0	44852	12	1
0	44854	12	3
0	44855	12	5
0	44856	12	3
0	44857	12	5
0	44858	12	8
0	44859	12	5
0	44860	12	3
0	44861	12	5
0	44862	12	3
0	44863	12	1
0	44864	12	1
0	44998	12.05	3
0	44999	12.05	5
0	45000	12.05	3
0	45001	12.05	5
0	45002	12.05	8
0	45003	12.05	5
0	45004	12.05	3
0	45005	12.05	5
0	45006	12.05	3
0	45007	12.05	1
0	45008	12.05	1
0	45194	12.1	3
0	45195	12.1	5
0	45196	12.1	3
0	45197	12.1	5
0	45198	12.1	8
0	45199	12.1	5
0	45200	12.1	3
0	45201	12.1	5
0	45202	12.1	3
0	45203	12.1	1
0	45204	12.1	1
0	45206	12.1	3
0	45207	12.1	5
0	45208	12.1	3
0	45209	12.1	5
0	45210	12.1	8
0	45211	12.1	5
0	45212	12.1	3
0	45213	12.1	5
0	45214	12.1	3
0	45215	12.1	1
0	45216	12.1	1
0	45522	12.15	3
0	45523	12.15	5
0	45524	12.15	3
0	45525	12.15	5
0	45526	12.15	8
0	45527	12.15	5
0	45528	12.15	3
0	45529	12.15	5
0	45530	12.15	3
0	45531	12.15	1
0	45532	12.15	1
0	45673	12.2	3
0	45674	12.2	5
0	45675	12.2	3
0	45676	12.2	5
0	45677	12.2	8
0	45678	12.2	5
0	45679	12.2	3
0	45680	12.2	5
0	45681	12.2	3
0	45682	12.2	1
0	45683	12.2	1
0	45685	12.2	3
0	45686	12.2	5
0	45687	12.2	3
0	45688	12.2	5
0	45689	12.2	8
0	45690	12.2	5
0	45691	12.2	3
0	45692	12.2	5
0	45693	12.2	3
0	45694	12.2	1
0	45695	12.2	1
0	45928	12.25	3
0	45929	12.25	5
0	45930	12.25	3
0	45931	12.25	5
0	45932	12.25	8
0	45933	12.25	5
0	45934	12.25	3
0	45935	12.25	5
0	45936	12.25	3
0	45937	12.25	1
0	45938	12.25	1
0	46163	12.3	3
0	46164	12.3	5
0	46165	12.3	3
0	46166	12.3	5
0	46167	12.3	8
0	46168	12.3	5
0	46169	12.3	3
0	46170	12.3	5
0	46171	12.3	3
0	46172	12.3	1
0	46173	12.3	1
0	46175	12.3	3
0	46176	12.3	5
0	46177	12.3	3
0	46178	12.3	5
0	46179	12.3	8
0	46180	12.3	5
0	46181	12.3	3
0	46182	12.3	5
0	46183	12.3	3
0	46184	12.3	1
0	46185	12.3	1
0	46447	12.35	3
0	46448	12.35	5
0	46449	12.35	3
0	46450	12.35	5
0	46451	12.35	8
0	46452	12.35	5
0	46453	12.35	3
0	46454	12.35	5
0	46455	12.35	3
0	46456	12.35	1
0	46457	12.35	1
0	46654	12.4	3
0	46655	12.4	5
0	46656	12.4	3
0	46657	12.4	5
0	46658	12.4	8
0	46659	12.4	5
0	46660	12.4	3
0	46661	12.4	5
0	46662	12.4	3
0	46663	12.4	1
0	46664	12.4	1
0	46666	12.4	3
0	46667	12.4	5
0	46668	12.4	3
0	46669	12.4	5
0	46670	12.4	8
0	46671	12.4	5
0	46672	12.4	3
0	46673	12.4	5
0	46674	12.4	3
0	46675	12.4	1
0	46676	12.4	1
0	46810	12.45	3
0	46811	12.45	5
0	46812	12.45	3
0	46813	12.45	5
0	46814	12.45	8
0	46815	12.45	5
0	46816	12.45	3
0	46817	12.45	5
0	46818	12.45	3
0	46819	12.45	1
0	46820	12.45	1
0	46914	12.5	3
0	46915	12.5	5
0	46916	12.5	3
0	46917	12.5	5
0	46918	12.5	8
0	46919	12.5	5
0	46920	12.5	3
0	46921	12.5	5
0	46922	12.5	3
0	46923	12.5	1
0	46924	12.5	1
0	46926	12.5	3
0	46927	12.5	5
0	46928	12.5	3
0	46929	12.5	5
0	46930	12.5	8
0	46931	12.5	5
0	46932	12.5	3
0	46933	12.5	5
0	46934	12.5	3
0	46935	12.5	1
0	46936	12.5	1
0	47064	12.55	3
0	47065	12.55	5
0	47066	12.55	3
0	47067	12.55	5
0	47068	12.55	8
0	47069	12.55	5
0	47070	12.55	3
0	47071	12.55	5
0	47072	12.55	3
0	47073	12.55	1
0	47074	12.55	1
0	47168	12.6	3
0	47169	12.6	5
0	47170	12.6	3
0	47171	12.6	5
0	47172	12.6	8
0	47173	12.6	5
0	47174	12.6	3
0	47175	12.6	5
0	47176	12.6	3
0	47177	12.6	1
0	47178	12.6	1
0	47180	12.6	3
0	47181	12.6	5
0	47182	12.6	3
0	47183	12.6	5
0	47184	12.6	8
0	47185	12.6	5
0	47186	12.6	3
0	47187	12.6	5
0	47188	12.6	3
0	47189	12.6	1
0	47190	12.6	1
0	47421	12.65	3
0	47422	12.65	5
0	47423	12.65	3
0	47424	12.65	5
0	47425	12.65	8
0	47426	12.65	5
0	47427	12.65	3
0	47428	12.65	5
0	47429	12.65	3
0	47430	12.65	1
0	47431	12.65	1
0	47685	12.7	3
0	47686	12.7	5
0	47687	12.7	3
0	47688	12.7	5
0	47689	12.7	8
0	47690	12.7	5
0	47691	12.7	3
0	47692	12.7	5
0	47693	12.7	3
0	47694	12.7	1
0	47695	12.7	1
0	47697	12.7	3
0	47698	12.7	5
0	47699	12.7	3
0	47700	12.7	5
0	47701	12.7	8
0	47702	12.7	5
0	47703	12.7	3
0	47704	12.7	5
0	47705	12.7	3
0	47706	12.7	1
0	47707	12.7	1
0	47843	12.75	3
0	47844	12.75	5
0	47845	12.75	3
0	47846	12.75	5
0	47847	12.75	8
0	47848	12.75	5
0	47849	12.75	3
0	47850	12.75	5
0	47851	12.75	3
0	47852	12.75	1
0	47853	12.75	1
0	48102	12.8	3
0	48103	12.8	5
0	48104	12.8	3
0	48105	12.8	5
0	48106	12.8	8
0	48107	12.8	5
0	48108	12.8	3
0	48109	12.8	5
0	48110	12.8	3
0	48111	12.8	1
0	48112	12.8	1
0	48114	12.8	3
0	48115	12.8	5
0	48116	12.8	3
0	48117	12.8	5
0	48118	12.8	8
0	48119	12.8	5
0	48120	12.8	3
0	48121	12.8	5
0	48122	12.8	3
0	48123	12.8	1
0	48124	12.8	1
0	48361	12.85	3
0	48362	12.85	5
0	48363	12.85	3
0	48364	12.85	5
0	48365	12.85	8
0	48366	12.85	5
0	48367	12.85	3
0	48368	12.85	5
0	48369	12.85	3
0	48370	12.85	1
0	48371	12.85	1
0	48514	12.9	3
0	48515	12.9	5
0	48516	12.9	3
0	48517	12.9	5
0	48518	12.9	8
0	48519	12.9	5
0	48520	12.9	3
0	48521	12.9	5
0	48522	12.9	3
0	48523	12.9	1
0	48524	12.9	1
0	48526	12.9	3
0	48527	12.9	5
0	48528	12.9	3
0	48529	12.9	5
0	48530	12.9	8
0	48531	12.9	5
0	48532	12.9	3
0	48533	12.9	5
0	48534	12.9	3
0	48535	12.9	1
0	48536	12.9	1
0	48716	12.95	3
0	48717	12.95	5
0	48718	12.95	3
0	48719	12.95	5
0	48720	12.95	8
0	48721	12.95	5
0	48722	12.95	3
0	48723	12.95	5
0	48724	12.95	3
0	48725	12.95	1
0	48726	12.95	1
0	48820	13	3
0	48821	13	5
0	48822	13	3
0	48823	13	5
0	48824	13	8
0	48825	13	5
0	48826	13	3
0	48827	13	5
0	48828	13	3
0	48829	13	1
0	48830	13	1
0	48832	13	3
0	48833	13	5
0	48834	13	3
0	48835	13	5
0	48836	13	8
0	48837	13	5
0	48838	13	3
0	48839	13	5
0	48840	13	3
0	48841	13	1
0	48842	13	1
0	48997	13.05	3
0	48998	13.05	5
0	48999	13.05	3
0	49000	13.05	5
0	49001	13.05	8
0	49002	13.05	5
0	49003	13.05	3
0	49004	13.05	5
0	49005	13.05	3
0	49006	13.05	1
0	49007	13.05	1
0	49130	13.1	3
0	49131	13.1	5
0	49132	13.1	3
0	49133	13.1	5
0	49134	13.1	8
0	49135	13.1	5
0	49136	13.1	3
0	49137	13.1	5
0	49138	13.1	3
0	49139	13.1	1
0	49140	13.1	1
0	49142	13.1	3
0	49143	13.1	5
0	49144	13.1	3
0	49145	13.1	5
0	49146	13.1	8
0	49147	13.1	5
0	49148	13.1	3
0	49149	13.1	5
0	49150	13.1	3
0	49151	13.1	1
0	49152	13.1	1
0	49276	13.15	3
0	49277	13.15	5
0	49278	13.15	3
0	49279	13.15	5
0	49280	13.15	8
0	49281	13.15	5
0	49282	13.15	3
0	49283	13.15	5
0	49284	13.15	3
0	49285	13.15	1
0	49286	13.15	1
0	49503	13.2	3
0	49504	13.2	5
0	49505	13.2	3
0	49506	13.2	5
0	49507	13.2	8
0	49508	13.2	5
0	49509	13.2	3
0	49510	13.2	5
0	49511	13.2	3
0	49512	13.2	1
0	49513	13.2	1
0	49515	13.2	3
0	49516	13.2	5
0	49517	13.2	3
0	49518	13.2	5
0	49519	13.2	8
0	49520	13.2	5
0	49521	13.2	3
0	49522	13.2	5
0	49523	13.2	3
0	49524	13.2	1
0	49525	13.2	1
0	49810	13.25	3
0	49811	13.25	5
0	49812	13.25	3
0	49813	13.25	5
0	49814	13.25	8
0	49815	13.25	5
0	49816	13.25	3
0	49817	13.25	5
0	49818	13.25	3
0	49819	13.25	1
0	49820	13.25	1
0	50030	13.3	3
0	50031	13.3	5
0	50032	13.3	3
0	50033	13.3	5
0	50034	13.3	8
0	50035	13.3	5
0	50036	13.3	3
0	50037	13.3	5
0	50038	13.3	3
0	50039	13.3	1
0	50040	13.3	1
0	50042	13.3	3
0	50043	13.3	5
0	50044	13.3	3
0	50045	13.3	5
0	50046	13.3	8
0	50047	13.3	5
0	50048	13.3	3
0	50049	13.3	5
0	50050	13.3	3
0	50051	13.3	1
0	50052	13.3	1
0	50396	13.35	3
0	50397	13.35	5
0	50398	13.35	3
0	50399	13.35	5
0	50400	13.35	8
0	50401	13.35	5
0	50402	13.35	3
0	50403	13.35	5
0	50404	13.35	3
0	50405	13.35	1
0	50406	13.35	1
0	50670	13.4	3
0	50671	13.4	5
0	50672	13.4	3
0	50673	13.4	5
0	50674	13.4	8
0	50675	13.4	5
0	50676	13.4	3
0	50677	13.4	5
0	50678	13.4	3
0	50679	13.4	1
0	50680	13.4	1
0	50682	13.4	3
0	50683	13.4	5
0	50684	13.4	3
0	50685	13.4	5
0	50686	13.4	8
0	50687	13.4	5
0	50688	13.4	3
0	50689	13.4	5
0	50690	13.4	3
0	50691	13.4	1
0	50692	13.4	1
0	50826	13.45	3
0	50827	13.45	5
0	50828	13.45	3
0	50829	13.45	5
0	50830	13.45	8
0	50831	13.45	5
0	50832	13.45	3
0	50833	13.45	5
0	50834	13.45	3
0	50835	13.45	1
0	50836	13.45	1
0	51017	13.5	3
0	51018	13.5	5
0	51019	13.5	3
0	51020	13.5	5
0	51021	13.5	8
0	51022	13.5	5
0	51023	13.5	3
0	51024	13.5	5
0	51025	13.5	3
0	51026	13.5	1
0	51027	13.5	1
0	51029	13.5	3
0	51030	13.5	5
0	51031	13.5	3
0	51032	13.5	5
0	51033	13.5	8
0	51034	13.5	5
0	51035	13.5	3
0	51036	13.5	5
0	51037	13.5	3
0	51038	13.5	1
0	51039	13.5	1
0	51173	13.55	3
0	51174	13.55	5
0	51175	13.55	3
0	51176	13.55	5
0	51177	13.55	8
0	51178	13.55	5
0	51179	13.55	3
0	51180	13.55	5
0	51181	13.55	3
0	51182	13.55	1
0	51183	13.55	1
0	51316	13.6	3
0	51317	13.6	5
0	51318	13.6	3
0	51319	13.6	5
0	51320	13.6	8
0	51321	13.6	5
0	51322	13.6	3
0	51323	13.6	5
0	51324	13.6	3
0	51325	13.6	1
0	51326	13.6	1
0	51328	13.6	3
0	51329	13.6	5
0	51330	13.6	3
0	51331	13.6	5
0	51332	13.6	8
0	51333	13.6	5
0	51334	13.6	3
0	51335	13.6	5
0	51336	13.6	3
0	51337	13.6	1
0	51338	13.6	1
0	51472	13.65	3
0	51473	13.65	5
0	51474	13.65	3
0	51475	13.65	5
0	51476	13.65	8
0	51477	13.65	5
0	51478	13.65	3
0	51479	13.65	5
0	51480	13.65	3
0	51481	13.65	1
0	51482	13.65	1
0	51571	13.7	3
0	51572	13.7	5
0	51573	13.7	3
0	51574	13.7	5
0	51575	13.7	8
0	51576	13.7	5
0	51577	13.7	3
0	51578	13.7	5
0	51579	13.7	3
0	51580	13.7	1
0	51581	13.7	1
0	51583	13.7	3
0	51584	13.7	5
0	51585	13.7	3
0	51586	13.7	5
0	51587	13.7	8
0	51588	13.7	5
0	51589	13.7	3
0	51590	13.7	5
0	51591	13.7	3
0	51592	13.7	1
0	51593	13.7	1
0	51826	13.75	3
0	51827	13.75	5
0	51828	13.75	3
0	51829	13.75	5
0	51830	13.75	8
0	51831	13.75	5
0	51832	13.75	3
0	51833	13.75	5
0	51834	13.75	3
0	51835	13.75	1
0	51836	13.75	1
0	52104	13.8	3
0	52105	13.8	5
0	52106	13.8	3
0	52107	13.8	5
0	52108	13.8	8
0	52109	13.8	5
0	52110	13.8	3
0	52111	13.8	5
0	52112	13.8	3
0	52113	13.8	1
0	52114	13.8	1
0	52116	13.8	3
0	52117	13.8	5
0	52118	13.8	3
0	52119	13.8	5
0	52120	13.8	8
0	52121	13.8	5
0	52122	13.8	3
0	52123	13.8	5
0	52124	13.8	3
0	52125	13.8	1
0	52126	13.8	1
0	52268	13.85	3
0	52269	13.85	5
0	52270	13.85	3
0	52271	13.85	5
0	52272	13.85	8
0	52273	13.85	5
0	52274	13.85	3
0	52275	13.85	5
0	52276	13.85	3
0	52277	13.85	1
0	52278	13.85	1
0	52532	13.9	3
0	52533	13.9	5
0	52534	13.9	3
0	52535	13.9	5
0	52536	13.9	8
0	52537	13.9	5
0	52538	13.9	3
0	52539	13.9	5
0	52540	13.9	3
0	52541	13.9	1
0	52542	13.9	1
0	52544	13.9	3
0	52545	13.9	5
0	52546	13.9	3
0	52547	13.9	5
0	52548	13.9	8
0	52549	13.9	5
0	52550	13.9	3
0	52551	13.9	5
0	52552	13.9	3
0	52553	13.9	1
0	52554	13.9	1
0	52842	13.95	3
0	52843	13.95	5
0	52844	13.95	3
0	52845	13.95	5
0	52846	13.95	8
0	52847	13.95	5
0	52848	13.95	3
0	52849	13.95	5
0	52850	13.95	3
0	52851	13.95	1
0	52852	13.95	1
0	53013	14	3
0	53014	14	5
0	53015	14	3
0	53016	14	5
0	53017	14	8
0	53018	14	5
0	53019	14	3
0	53020	14	5
0	53021	14	3
0	53022	14	1
0	53023	14	1
0	53025	14	3
0	53026	14	5
0	53027	14	3
0	53028	14	5
0	53029	14	8
0	53030	14	5
0	53031	14	3
0	53032	14	5
0	53033	14	3
0	53034	14	1
0	53035	14	1
0	53209	14.05	3
0	53210	14.05	5
0	53211	14.05	3
0	53212	14.05	5
0	53213	14.05	8
0	53214	14.05	5
0	53215	14.05	3
0	53216	14.05	5
0	53217	14.05	3
0	53218	14.05	1
0	53219	14.05	1
0	53365	14.1	3
0	53366	14.1	5
0	53367	14.1	3
0	53368	14.1	5
0	53369	14.1	8
0	53370	14.1	5
0	53371	14.1	3
0	53372	14.1	5
0	53373	14.1	3
0	53374	14.1	1
0	53375	14.1	1
0	53377	14.1	3
0	53378	14.1	5
0	53379	14.1	3
0	53380	14.1	5
0	53381	14.1	8
0	53382	14.1	5
0	53383	14.1	3
0	53384	14.1	5
0	53385	14.1	3
0	53386	14.1	1
0	53387	14.1	1
0	53555	14.15	3
0	53556	14.15	5
0	53557	14.15	3
0	53558	14.15	5
0	53559	14.15	8
0	53560	14.15	5
0	53561	14.15	3
0	53562	14.15	5
0	53563	14.15	3
0	53564	14.15	1
0	53565	14.15	1
0	53654	14.2	3
0	53655	14.2	5
0	53656	14.2	3
0	53657	14.2	5
0	53658	14.2	8
0	53659	14.2	5
0	53660	14.2	3
0	53661	14.2	5
0	53662	14.2	3
0	53663	14.2	1
0	53664	14.2	1
0	53666	14.2	3
0	53667	14.2	5
0	53668	14.2	3
0	53669	14.2	5
0	53670	14.2	8
0	53671	14.2	5
0	53672	14.2	3
0	53673	14.2	5
0	53674	14.2	3
0	53675	14.2	1
0	53676	14.2	1
0	53810	14.25	3
0	53811	14.25	5
0	53812	14.25	3
0	53813	14.25	5
0	53814	14.25	8
0	53815	14.25	5
0	53816	14.25	3
0	53817	14.25	5
0	53818	14.25	3
0	53819	14.25	1
0	53820	14.25	1
0	54016	14.3	3
0	54017	14.3	5
0	54018	14.3	3
0	54019	14.3	5
0	54020	14.3	8
0	54021	14.3	5
0	54022	14.3	3
0	54023	14.3	5
0	54024	14.3	3
0	54025	14.3	1
0	54026	14.3	1
0	54028	14.3	3
0	54029	14.3	5
0	54030	14.3	3
0	54031	14.3	5
0	54032	14.3	8
0	54033	14.3	5
0	54034	14.3	3
0	54035	14.3	5
0	54036	14.3	3
0	54037	14.3	1
0	54038	14.3	1
0	54285	14.35	3
0	54286	14.35	5
0	54287	14.35	3
0	54288	14.35	5
0	54289	14.35	8
0	54290	14.35	5
0	54291	14.35	3
0	54292	14.35	5
0	54293	14.35	3
0	54294	14.35	1
0	54295	14.35	1
0	54412	14.4	3
0	54413	14.4	5
0	54414	14.4	3
0	54415	14.4	5
0	54416	14.4	8
0	54417	14.4	5
0	54418	14.4	3
0	54419	14.4	5
0	54420	14.4	3
0	54421	14.4	1
0	54422	14.4	1
0	54424	14.4	3
0	54425	14.4	5
0	54426	14.4	3
0	54427	14.4	5
0	54428	14.4	8
0	54429	14.4	5
0	54430	14.4	3
0	54431	14.4	5
0	54432	14.4	3
0	54433	14.4	1
0	54434	14.4	1
0	54697	14.45	3
0	54698	14.45	5
0	54699	14.45	3
0	54700	14.45	5
0	54701	14.45	8
0	54702	14.45	5
0	54703	14.45	3
0	54704	14.45	5
0	54705	14.45	3
0	54706	14.45	1
0	54707	14.45	1
0	54913	14.5	3
0	54914	14.5	5
0	54915	14.5	3
0	54916	14.5	5
0	54917	14.5	8
0	54918	14.5	5
0	54919	14.5	3
0	54920	14.5	5
0	54921	14.5	3
0	54922	14.5	1
0	54923	14.5	1
0	54925	14.5	3
0	54926	14.5	5
0	54927	14.5	3
0	54928	14.5	5
0	54929	14.5	8
0	54930	14.5	5
0	54931	14.5	3
0	54932	14.5	5
0	54933	14.5	3
0	54934	14.5	1
0	54935	14.5	1
0	55088	14.55	3
0	55089	14.55	5
0	55090	14.55	3
0	55091	14.55	5
0	55092	14.55	8
0	55093	14.55	5
0	55094	14.55	3
0	55095	14.55	5
0	55096	14.55	3
0	55097	14.55	1
0	55098	14.55	1
0	55270	14.6	3
0	55271	14.6	5
0	55272	14.6	3
0	55273	14.6	5
0	55274	14.6	8
0	55275	14.6	5
0	55276	14.6	3
0	55277	14.6	5
0	55278	14.6	3
0	55279	14.6	1
0	55280	14.6	1
0	55282	14.6	3
0	55283	14.6	5
0	55284	14.6	3
0	55285	14.6	5
0	55286	14.6	8
0	55287	14.6	5
0	55288	14.6	3
0	55289	14.6	5
0	55290	14.6	3
0	55291	14.6	1
0	55292	14.6	1
0	55457	14.65	3
0	55458	14.65	5
0	55459	14.65	3
0	55460	14.65	5
0	55461	14.65	8
0	55462	14.65	5
0	55463	14.65	3
0	55464	14.65	5
0	55465	14.65	3
0	55466	14.65	1
0	55467	14.65	1
0	55579	14.7	3
0	55580	14.7	5
0	55581	14.7	3
0	55582	14.7	5
0	55583	14.7	8
0	55584	14.7	5
0	55585	14.7	3
0	55586	14.7	5
0	55587	14.7	3
0	55588	14.7	1
0	55589	14.7	1
0	55591	14.7	3
0	55592	14.7	5
0	55593	14.7	3
0	55594	14.7	5
0	55595	14.7	8
0	55596	14.7	5
0	55597	14.7	3
0	55598	14.7	5
0	55599	14.7	3
0	55600	14.7	1
0	55601	14.7	1
0	55712	14.75	3
0	55713	14.75	5
0	55714	14.75	3
0	55715	14.75	5
0	55716	14.75	8
0	55717	14.75	5
0	55718	14.75	3
0	55719	14.75	5
0	55720	14.75	3
0	55721	14.75	1
0	55722	14.75	1
0	55833	14.8	3
0	55834	14.8	5
0	55835	14.8	3
0	55836	14.8	5
0	55837	14.8	8
0	55838	14.8	5
0	55839	14.8	3
0	55840	14.8	5
0	55841	14.8	3
0	55842	14.8	1
0	55843	14.8	1
0	55845	14.8	3
0	55846	14.8	5
0	55847	14.8	3
0	55848	14.8	5
0	55849	14.8	8
0	55850	14.8	5
0	55851	14.8	3
0	55852	14.8	5
0	55853	14.8	3
0	55854	14.8	1
0	55855	14.8	1
0	56035	14.85	3
0	56036	14.85	5
0	56037	14.85	3
0	56038	14.85	5
0	56039	14.85	8
0	56040	14.85	5
0	56041	14.85	3
0	56042	14.85	5
0	56043	14.85	3
0	56044	14.85	1
0	56045	14.85	1
0	56213	14.9	3
0	56214	14.9	5
0	56215	14.9	3
0	56216	14.9	5
0	56217	14.9	8
0	56218	14.9	5
0	56219	14.9	3
0	56220	14.9	5
0	56221	14.9	3
0	56222	14.9	1
0	56223	14.9	1
0	56225	14.9	3
0	56226	14.9	5
0	56227	14.9	3
0	56228	14.9	5
0	56229	14.9	8
0	56230	14.9	5
0	56231	14.9	3
0	56232	14.9	5
0	56233	14.9	3
0	56234	14.9	1
0	56235	14.9	1
0	56369	14.95	3
0	56370	14.95	5
0	56371	14.95	3
0	56372	14.95	5
0	56373	14.95	8
0	56374	14.95	5
0	56375	14.95	3
0	56376	14.95	5
0	56377	14.95	3
0	56378	14.95	1
0	56379	14.95	1
0	56583	15	3
0	56584	15	5
0	56585	15	3
0	56586	15	5
0	56587	15	8
0	56588	15	5
0	56589	15	3
0	56590	15	5
0	56591	15	3
0	56592	15	1
0	56593	15	1
0	56595	15	3
0	56596	15	5
0	56597	15	3
0	56598	15	5
0	56599	15	8
0	56600	15	5
0	56601	15	3
0	56602	15	5
0	56603	15	3
0	56604	15	1
0	56605	15	1
0	56779	15.05	3
0	56780	15.05	5
0	56781	15.05	3
0	56782	15.05	5
0	56783	15.05	8
0	56784	15.05	5
0	56785	15.05	3
0	56786	15.05	5
0	56787	15.05	3
0	56788	15.05	1
0	56789	15.05	1
0	56929	15.1	3
0	56930	15.1	5
0	56931	15.1	3
0	56932	15.1	5
0	56933	15.1	8
0	56934	15.1	5
0	56935	15.1	3
0	56936	15.1	5
0	56937	15.1	3
0	56938	15.1	1
0	56939	15.1	1
0	56941	15.1	3
0	56942	15.1	5
0	56943	15.1	3
0	56944	15.1	5
0	56945	15.1	8
0	56946	15.1	5
0	56947	15.1	3
0	56948	15.1	5
0	56949	15.1	3
0	56950	15.1	1
0	56951	15.1	1
0	57121	15.15	3
0	57122	15.15	5
0	57123	15.15	3
0	57124	15.15	5
0	57125	15.15	8
0	57126	15.15	5
0	57127	15.15	3
0	57128	15.15	5
0	57129	15.15	3
0	57130	15.15	1
0	57131	15.15	1
0	57266	15.2	3
0	57267	15.2	5
0	57268	15.2	3
0	57269	15.2	5
0	57270	15.2	8
0	57271	15.2	5
0	57272	15.2	3
0	57273	15.2	5
0	57274	15.2	3
0	57275	15.2	1
0	57276	15.2	1
0	57278	15.2	3
0	57279	15.2	5
0	57280	15.2	3
0	57281	15.2	5
0	57282	15.2	8
0	57283	15.2	5
0	57284	15.2	3
0	57285	15.2	5
0	57286	15.2	3
0	57287	15.2	1
0	57288	15.2	1
0	57473	15.25	3
0	57474	15.25	5
0	57475	15.25	3
0	57476	15.25	5
0	57477	15.25	8
0	57478	15.25	5
0	57479	15.25	3
0	57480	15.25	5
0	57481	15.25	3
0	57482	15.25	1
0	57483	15.25	1
0	57572	15.3	3
0	57573	15.3	5
0	57574	15.3	3
0	57575	15.3	5
0	57576	15.3	8
0	57577	15.3	5
0	57578	15.3	3
0	57579	15.3	5
0	57580	15.3	3
0	57581	15.3	1
0	57582	15.3	1
0	57584	15.3	3
0	57585	15.3	5
0	57586	15.3	3
0	57587	15.3	5
0	57588	15.3	8
0	57589	15.3	5
0	57590	15.3	3
0	57591	15.3	5
0	57592	15.3	3
0	57593	15.3	1
0	57594	15.3	1
0	57751	15.35	3
0	57752	15.35	5
0	57753	15.35	3
0	57754	15.35	5
0	57755	15.35	8
0	57756	15.35	5
0	57757	15.35	3
0	57758	15.35	5
0	57759	15.35	3
0	57760	15.35	1
0	57761	15.35	1
0	57923	15.4	3
0	57924	15.4	5
0	57925	15.4	3
0	57926	15.4	5
0	57927	15.4	8
0	57928	15.4	5
0	57929	15.4	3
0	57930	15.4	5
0	57931	15.4	3
0	57932	15.4	1
0	57933	15.4	1
0	57935	15.4	3
0	57936	15.4	5
0	57937	15.4	3
0	57938	15.4	5
0	57939	15.4	8
0	57940	15.4	5
0	57941	15.4	3
0	57942	15.4	5
0	57943	15.4	3
0	57944	15.4	1
0	57945	15.4	1
0	58125	15.45	3
0	58126	15.45	5
0	58127	15.45	3
0	58128	15.45	5
0	58129	15.45	8
0	58130	15.45	5
0	58131	15.45	3
0	58132	15.45	5
0	58133	15.45	3
0	58134	15.45	1
0	58135	15.45	1
0	58246	15.5	3
0	58247	15.5	5
0	58248	15.5	3
0	58249	15.5	5
0	58250	15.5	8
0	58251	15.5	5
0	58252	15.5	3
0	58253	15.5	5
0	58254	15.5	3
0	58255	15.5	1
0	58256	15.5	1
0	58258	15.5	3
0	58259	15.5	5
0	58260	15.5	3
0	58261	15.5	5
0	58262	15.5	8
0	58263	15.5	5
0	58264	15.5	3
0	58265	15.5	5
0	58266	15.5	3
0	58267	15.5	1
0	58268	15.5	1
0	58499	15.55	3
0	58500	15.55	5
0	58501	15.55	3
0	58502	15.55	5
0	58503	15.55	8
0	58504	15.55	5
0	58505	15.55	3
0	58506	15.55	5
0	58507	15.55	3
0	58508	15.55	1
0	58509	15.55	1
0	58714	15.6	3
0	58715	15.6	5
0	58716	15.6	3
0	58717	15.6	5
0	58718	15.6	8
0	58719	15.6	5
0	58720	15.6	3
0	58721	15.6	5
0	58722	15.6	3
0	58723	15.6	1
0	58724	15.6	1
0	58726	15.6	3
0	58727	15.6	5
0	58728	15.6	3
0	58729	15.6	5
0	58730	15.6	8
0	58731	15.6	5
0	58732	15.6	3
0	58733	15.6	5
0	58734	15.6	3
0	58735	15.6	1
0	58736	15.6	1
0	58924	15.65	3
0	58925	15.65	5
0	58926	15.65	3
0	58927	15.65	5
0	58928	15.65	8
0	58929	15.65	5
0	58930	15.65	3
0	58931	15.65	5
0	58932	15.65	3
0	58933	15.65	1
0	58934	15.65	1
0	59069	15.7	3
0	59070	15.7	5
0	59071	15.7	3
0	59072	15.7	5
0	59073	15.7	8
0	59074	15.7	5
0	59075	15.7	3
0	59076	15.7	5
0	59077	15.7	3
0	59078	15.7	1
0	59079	15.7	1
0	59081	15.7	3
0	59082	15.7	5
0	59083	15.7	3
0	59084	15.7	5
0	59085	15.7	8
0	59086	15.7	5
0	59087	15.7	3
0	59088	15.7	5
0	59089	15.7	3
0	59090	15.7	1
0	59091	15.7	1
0	59230	15.75	3
0	59231	15.75	5
0	59232	15.75	3
0	59233	15.75	5
0	59234	15.75	8
0	59235	15.75	5
0	59236	15.75	3
0	59237	15.75	5
0	59238	15.75	3
0	59239	15.75	1
0	59240	15.75	1
0	59442	15.8	3
0	59443	15.8	5
0	59444	15.8	3
0	59445	15.8	5
0	59446	15.8	8
0	59447	15.8	5
0	59448	15.8	3
0	59449	15.8	5
0	59450	15.8	3
0	59451	15.8	1
0	59452	15.8	1
0	59454	15.8	3
0	59455	15.8	5
0	59456	15.8	3
0	59457	15.8	5
0	59458	15.8	8
0	59459	15.8	5
0	59460	15.8	3
0	59461	15.8	5
0	59462	15.8	3
0	59463	15.8	1
0	59464	15.8	1
0	59575	15.85	3
0	59576	15.85	5
0	59577	15.85	3
0	59578	15.85	5
0	59579	15.85	8
0	59580	15.85	5
0	59581	15.85	3
0	59582	15.85	5
0	59583	15.85	3
0	59584	15.85	1
0	59585	15.85	1
0	59702	15.9	3
0	59703	15.9	5
0	59704	15.9	3
0	59705	15.9	5
0	59706	15.9	8
0	59707	15.9	5
0	59708	15.9	3
0	59709	15.9	5
0	59710	15.9	3
0	59711	15.9	1
0	59712	15.9	1
0	59714	15.9	3
0	59715	15.9	5
0	59716	15.9	3
0	59717	15.9	5
0	59718	15.9	8
0	59719	15.9	5
0	59720	15.9	3
0	59721	15.9	5
0	59722	15.9	3
0	59723	15.9	1
0	59724	15.9	1
0	59921	15.95	3
0	59922	15.95	5
0	59923	15.95	3
0	59924	15.95	5
0	59925	15.95	8
0	59926	15.95	5
0	59927	15.95	3
0	59928	15.95	5
0	59929	15.95	3
0	59930	15.95	1
0	59931	15.95	1
0	60106	16	3
0	60107	16	5
0	60108	16	3
0	60109	16	5
0	60110	16	8
0	60111	16	5
0	60112	16	3
0	60113	16	5
0	60114	16	3
0	60115	16	1
0	60116	16	1
0	60118	16	3
0	60119	16	5
0	60120	16	3
0	60121	16	5
0	60122	16	8
0	60123	16	5
0	60124	16	3
0	60125	16	5
0	60126	16	3
0	60127	16	1
0	60128	16	1
0	60323	16.05	3
0	60324	16.05	5
0	60325	16.05	3
0	60326	16.05	5
0	60327	16.05	8
0	60328	16.05	5
0	60329	16.05	3
0	60330	16.05	5
0	60331	16.05	3
0	60332	16.05	1
0	60333	16.05	1
0	60597	16.1	3
0	60598	16.1	5
0	60599	16.1	3
0	60600	16.1	5
0	60601	16.1	8
0	60602	16.1	5
0	60603	16.1	3
0	60604	16.1	5
0	60605	16.1	3
0	60606	16.1	1
0	60607	16.1	1
0	60609	16.1	3
0	60610	16.1	5
0	60611	16.1	3
0	60612	16.1	5
0	60613	16.1	8
0	60614	16.1	5
0	60615	16.1	3
0	60616	16.1	5
0	60617	16.1	3
0	60618	16.1	1
0	60619	16.1	1
0	60821	16.15	3
0	60822	16.15	5
0	60823	16.15	3
0	60824	16.15	5
0	60825	16.15	8
0	60826	16.15	5
0	60827	16.15	3
0	60828	16.15	5
[...]
3	297263	75.483626728067	274809
3	297464	75.53396899642	274950
3	297864	75.63396899642	275091
3	298047	75.683626728067	275232
3	298066	75.697466728067	275373
3	298225	75.711306728067	275514
3	298298	75.725146728067	275655
3	298317	75.738986728067	275796
3	298439	75.752826728067	275937
3	298465	75.766666728067	276078
3	298501	75.780506728067	276219
3	299661	76.133626728067	276360
3	299674	76.147466728067	276501
3	299799	76.161306728067	276642
3	299859	76.175146728067	276783
3	299877	76.188986728067	276924
3	300408	76.283626728067	277065
3	300426	76.297466728067	277206
3	300580	76.311306728067	277347
3	300626	76.325146728067	277488
3	300644	76.338986728067	277629
3	300765	76.352826728067	277770
3	300790	76.366666728067	277911
3	300814	76.380506728067	278052
3	300832	76.394346728067	278193
3	300988	76.408186728067	278334
3	301067	76.435866728067	278475
3	301077	76.438266728067	278616
3	301205	76.452106728067	278757
3	301218	76.463546728067	278898
3	301236	76.477386728067	279039
3	301254	76.491226728067	279180
3	301406	76.505066728067	279321
3	301436	76.518906728067	279462
3	301463	76.532746728067	279603
3	301589	76.560426728067	279744
3	301664	76.574266728067	279885
3	301688	76.588106728067	280026
3	301840	76.601946728067	280167
3	301870	76.615786728067	280308
3	301897	76.629626728067	280449
3	301915	76.643466728067	280590
3	302083	76.671146728067	280731
3	302101	76.683626728067	280872
3	302111	76.684986728067	281013
3	302137	76.698826728067	281154
3	302293	76.712666728067	281295
3	302347	76.726506728067	281436
3	302365	76.740346728067	281577
3	302488	76.754186728067	281718
3	302530	76.768026728067	281859
3	302566	76.781866728067	282000
3	302584	76.795706728067	282141
3	302742	76.809546728067	282282
3	302827	76.823386728067	282423
3	302845	76.833626728067	282564
3	302863	76.837226728067	282705
3	302881	76.847466728067	282846
3	303000	76.851066728067	282987
3	303021	76.864906728067	283128
3	303057	76.878746728067	283269
3	303075	76.892586728067	283410
3	303229	76.906426728067	283551
3	303262	76.920266728067	283692
3	303280	76.934106728067	283833
3	303298	76.947946728067	283974
3	303419	76.961786728067	284115
3	303463	76.975626728067	284256
3	303481	76.983626728067	284397
3	303499	76.989466728067	284538
3	303662	77.003306728067	284679
3	303687	77.017146728067	284820
3	303714	77.030986728067	284961
3	303732	77.044826728067	285102
3	303849	77.058666728067	285243
3	303867	77.072506728067	285384
3	303885	77.086346728067	285525
3	304065	77.100186728067	285666
3	304083	77.114026728067	285807
3	304146	77.127866728067	285948
3	304164	77.141706728067	286089
3	304287	77.155546728067	286230
3	304341	77.169386728067	286371
3	304380	77.183226728067	286512
3	304398	77.197066728067	286653
3	304554	77.210906728067	286794
3	304638	77.238586728067	286935
3	304759	77.252426728067	287076
3	304801	77.266266728067	287217
3	305066	77.33342031478	287358
3	305085	77.338370138005	287499
3	305283	77.366050138005	287640
3	306432	77.733626728067	287781
3	306451	77.747466728067	287922
3	306678	77.798426728067	288063
3	306832	77.812266728067	288204
3	306874	77.826106728067	288345
3	306892	77.839946728067	288486
3	307017	77.853786728067	288627
3	307074	77.867626728067	288768
3	307288	77.883626728067	288909
3	307313	77.897466728067	289050
3	307315	77.897466728067	289191
3	307492	77.911306728067	289332
3	307494	77.911306728067	289473
3	307566	77.925146728067	289614
3	307568	77.925146728067	289755
3	307632	77.938986728067	289896
3	307634	77.938986728067	290037
3	307770	77.952826728067	290178
3	307772	77.952826728067	290319
3	307810	77.966666728067	290460
3	307812	77.966666728067	290601
3	307847	77.980506728067	290742
3	307849	77.980506728067	290883
3	307884	77.994346728067	291024
3	307886	77.994346728067	291165
3	308051	78.008186728067	291306
3	308091	78.022026728067	291447
3	308113	78.049706728067	291588
3	308233	78.063546728067	291729
3	308267	78.077386728067	291870
3	308286	78.091226728067	292011
3	308467	78.105066728067	292152
3	308522	78.118906728067	292293
3	308559	78.132746728067	292434
3	308578	78.146586728067	292575
3	308700	78.160426728067	292716
3	308759	78.188106728067	292857
3	308912	78.201946728067	292998
3	308943	78.215786728067	293139
3	308971	78.229626728067	293280
3	308990	78.243466728067	293421
3	309116	78.257306728067	293562
3	309180	78.271146728067	293703
3	309203	78.284986728067	293844
3	309222	78.298826728067	293985
3	309385	78.312666728067	294126
3	309444	78.326506728067	294267
3	309508	78.340346728067	294408
3	309637	78.354186728067	294549
3	309656	78.368026728067	294690
3	309675	78.381866728067	294831
3	309694	78.395706728067	294972
3	309853	78.409546728067	295113
3	309907	78.423386728067	295254
3	309938	78.43342031478	295395
3	309970	78.437226728067	295536
3	309989	78.448426728067	295677
3	310114	78.451066728067	295818
3	310137	78.464906728067	295959
3	310196	78.478746728067	296100
3	310252	78.492586728067	296241
3	310403	78.506426728067	296382
3	310422	78.520266728067	296523
3	310441	78.534106728067	296664
3	310460	78.547946728067	296805
3	310582	78.561786728067	296946
3	310622	78.575626728067	297087
3	310641	78.589466728067	297228
3	310794	78.603306728067	297369
3	310825	78.617146728067	297510
3	310853	78.630986728067	297651
3	310872	78.644826728067	297792
3	310994	78.658666728067	297933
3	311055	78.672506728067	298074
3	311074	78.686346728067	298215
3	311231	78.700186728067	298356
3	311250	78.714026728067	298497
3	311313	78.735259262162	298638
3	311332	78.741706728067	298779
3	311452	78.755546728067	298920
3	311483	78.769386728067	299061
3	311511	78.783226728067	299202
3	311530	78.797066728067	299343
3	311685	78.810906728067	299484
3	311746	78.824746728067	299625
3	311760	78.838586728067	299766
3	311888	78.852426728067	299907
3	311947	78.866266728067	300048
3	312009	78.880106728067	300189
3	312049	78.893946728067	300330
3	312594	79.033626728067	300471
3	312621	79.047466728067	300612
3	312738	79.061306728067	300753
3	312756	79.075146728067	300894
3	312935	79.102826728067	301035
3	312965	79.116666728067	301176
3	312992	79.130506728067	301317
3	313318	79.233626728067	301458
3	313336	79.247466728067	301599
3	313459	79.261306728067	301740
3	313540	79.275146728067	301881
3	313921	79.383626728067	302022
3	313940	79.397466728067	302163
3	314156	79.425146728067	302304
3	314216	79.438986728067	302445
3	314255	79.448489319829	302586
3	314370	79.452826728067	302727
3	314381	79.453129319829	302868
3	314408	79.462329319829	303009
3	314439	79.466666728067	303150
3	314450	79.466969319829	303291
3	314480	79.480506728067	303432
3	314491	79.480809319829	303573
3	314659	79.508186728067	303714
3	314732	79.522026728067	303855
3	314982	79.597466728067	303996
3	316107	79.933626728067	304137
3	316126	79.947466728067	304278
3	318177	80.53396899642	304419
3	318199	80.54780899642	304560
3	318408	80.583626728067	304701
3	318419	80.583978264829	304842
3	318441	80.597466728067	304983
3	318597	80.611306728067	305124
3	318649	80.625146728067	305265
3	318663	80.63342031478	305406
3	318685	80.64726031478	305547
3	318809	80.652826728067	305688
3	318820	80.66110031478	305829
3	318863	80.666666728067	305970
3	318906	80.67494031478	306111
3	318928	80.680506728067	306252
3	318947	80.683626728067	306393
3	318976	80.68878031478	306534
3	318995	80.694346728067	306675
3	319014	80.697466728067	306816
3	319166	80.70262031478	306957
3	319185	80.711306728067	307098
3	319224	80.725146728067	307239
3	319242	80.738986728067	307380
3	319359	80.752826728067	307521
3	319377	80.766666728067	307662
3	319395	80.780506728067	307803
3	319413	80.794346728067	307944
3	319565	80.808186728067	308085
3	319935	80.91164899642	308226
3	319949	80.92548899642	308367
3	320356	81.048272534095	308508
3	320840	81.162266728067	308649
3	320903	81.176106728067	308790
3	320922	81.18342031478	308931
3	320941	81.189946728067	309072
3	321445	81.333626728067	309213
3	321609	81.383626728067	309354
3	321770	81.411306728067	309495
3	321880	81.425146728067	309636
3	321898	81.43396899642	309777
3	321917	81.438986728067	309918
3	321930	81.44780899642	310059
3	322048	81.46164899642	310200
3	322070	81.466666728067	310341
3	322088	81.47548899642	310482
3	322107	81.480506728067	310623
3	322125	81.494346728067	310764
3	322324	81.522026728067	310905
3	322342	81.535866728067	311046
3	322558	81.598272534095	311187
3	323667	81.933626728067	311328
3	323685	81.947466728067	311469
3	323928	81.975146728067	311610
3	323946	81.988483513801	311751
3	324111	82.016163513801	311892
3	324895	82.248426728067	312033
3	324897	82.248426728067	312174
3	325039	82.262266728067	312315
3	325041	82.262266728067	312456
3	325141	82.28342031478	312597
3	325471	82.383626728067	312738
3	325489	82.397466728067	312879
3	326005	82.533626728067	313020
3	326007	82.533626728067	313161
3	326039	82.547466728067	313302
3	326160	82.561306728067	313443
3	326162	82.561306728067	313584
3	326204	82.575146728067	313725
3	326206	82.575146728067	313866
3	326244	82.588986728067	314007
3	326394	82.602826728067	314148
3	326429	82.616666728067	314289
3	326474	82.630506728067	314430
3	326493	82.644346728067	314571
3	326619	82.658186728067	314712
3	326701	82.672026728067	314853
3	326720	82.685866728067	314994
3	328055	83.083626728067	315135
3	328074	83.097466728067	315276
3	328248	83.111306728067	315417
3	328432	83.18342031478	315558
3	328459	83.19726031478	315699
3	328615	83.21110031478	315840
3	328698	83.233626728067	315981
3	328716	83.247466728067	316122
3	328833	83.261306728067	316263
3	328851	83.275146728067	316404
3	329076	83.348426728067	316545
3	329200	83.362266728067	316686
3	329277	83.376106728067	316827
3	329770	83.53396899642	316968
3	329959	83.58396899642	317109
3	330204	83.633626728067	317250
3	331071	83.88396899642	317391
3	331101	83.89780899642	317532
3	331112	83.898426728067	317673
3	331275	83.91164899642	317814
3	331350	83.92548899642	317955
3	331364	83.93342031478	318096
3	331385	83.94726031478	318237
3	331504	83.95316899642	318378
3	331523	83.96110031478	318519
3	331553	83.96700899642	318660
3	331576	83.97494031478	318801
3	331597	83.98878031478	318942
3	331753	84.00262031478	319083
3	331786	84.01646031478	319224
3	332199	84.13396899642	319365
3	332405	84.183626728067	319506
3	332407	84.183626728067	319647
3	332436	84.197466728067	319788
3	332588	84.211306728067	319929
3	333003	84.313072534095	320070
3	333368	84.433626728067	320211
3	334002	84.633626728067	320352
3	334012	84.63396899642	320493
3	334039	84.647466728067	320634
3	334162	84.661306728067	320775
3	334225	84.675146728067	320916
3	334757	84.83342031478	321057
3	334775	84.84726031478	321198
3	334894	84.86110031478	321339
3	334933	84.87494031478	321480
3	334951	84.88878031478	321621
3	335103	84.90262031478	321762
3	335133	84.91646031478	321903
3	336274	85.283626728067	322044
3	336624	85.38342031478	322185
3	336634	85.383626728067	322326
3	337740	85.733626728067	322467
3	338952	86.083626728067	322608
3	339178	86.13342031478	322749
3	339196	86.14726031478	322890
3	339319	86.16110031478	323031
3	339402	86.17494031478	323172
3	339420	86.183626728067	323313
3	339430	86.188218386173	323454
3	339440	86.18878031478	323595
3	339466	86.197466728067	323736
3	339612	86.202058386173	323877
3	339622	86.20262031478	324018
3	339680	86.21646031478	324159
3	339718	86.23030031478	324300
3	339736	86.24414031478	324441
3	339857	86.25798031478	324582
3	339899	86.27182031478	324723
3	339917	86.28566031478	324864
3	339935	86.29950031478	325005
3	340095	86.31334031478	325146
3	340197	86.32718031478	325287
3	340557	86.43396899642	325428
3	341319	86.633626728067	325569
3	341338	86.647466728067	325710
3	341458	86.661306728067	325851
3	341498	86.675146728067	325992
3	341517	86.688986728067	326133
3	341674	86.702826728067	326274
3	341910	86.78396899642	326415
3	342061	86.81164899642	326556
3	342839	87.047466728067	326697
3	343353	87.183626728067	326838
3	343372	87.197466728067	326979
3	343571	87.23342031478	327120
3	343760	87.283626728067	327261
3	343962	87.33396899642	327402
3	344087	87.36164899642	327543
3	344861	87.583626728067	327684
3	344880	87.597466728067	327825
3	345776	87.833626728067	327966
3	345794	87.847466728067	328107
3	345913	87.861306728067	328248
3	345952	87.875146728067	328389
3	346644	88.083978264829	328530
3	347059	88.18396899642	328671
3	347408	88.283626728067	328812
3	347651	88.33342031478	328953
3	347662	88.33396899642	329094
3	347689	88.34780899642	329235
3	349253	88.833626728067	329376
3	349271	88.847466728067	329517
3	349437	88.875146728067	329658
3	349455	88.888986728067	329799
3	349609	88.902826728067	329940
3	349631	88.916666728067	330081
3	351101	89.383626728067	330222
3	351277	89.43342031478	330363
3	351445	89.48396899642	330504
3	351665	89.53396899642	330645
3	351679	89.54780899642	330786
3	351823	89.57548899642	330927
3	351974	89.60316899642	331068
3	351997	89.61700899642	331209
3	352027	89.63084899642	331350
3	352041	89.64468899642	331491
3	352163	89.65852899642	331632
3	352382	89.733626728067	331773
3	352401	89.747466728067	331914
3	352525	89.761306728067	332055
3	352609	89.775146728067	332196
3	352631	89.788986728067	332337
3	352788	89.802826728067	332478
3	352831	89.816666728067	332619
3	352868	89.830506728067	332760
3	355173	90.498272534095	332901
3	355372	90.53342031478	333042
3	355540	90.58396899642	333183
3	355554	90.59780899642	333324
3	355771	90.634031588182	333465
3	355812	90.647871588182	333606
3	355934	90.658384192201	333747
3	355953	90.661711588182	333888
3	355972	90.672224192201	334029
3	355986	90.675551588182	334170
3	356005	90.686064192201	334311
3	356024	90.689391588182	334452
3	356177	90.703231588182	334593
3	356519	90.833626728067	334734
3	357729	91.18396899642	334875
3	357761	91.19780899642	335016
3	357772	91.198426728067	335157
3	357934	91.212266728067	335298
3	358236	91.333626728067	335439
3	358254	91.347466728067	335580
3	358375	91.361306728067	335721
3	359087	91.598272534095	335862
3	359268	91.63342031478	336003
3	359623	91.733626728067	336144
3	359746	91.761306728067	336285
3	360330	91.933626728067	336426
3	361199	92.18342031478	336567
3	361577	92.283626728067	336708
3	361587	92.28396899642	336849
3	361614	92.297466728067	336990
3	361624	92.29780899642	337131
3	362298	92.483626728067	337272
3	362317	92.488456785734	337413
3	363962	93.03396899642	337554
3	364663	93.233626728067	337695
3	364682	93.247466728067	337836
3	364804	93.261306728067	337977
3	364867	93.275146728067	338118
3	364886	93.28342031478	338259
3	364905	93.288986728067	338400
3	365060	93.302826728067	338541
3	365131	93.333626728067	338682
3	365150	93.347466728067	338823
3	365270	93.361306728067	338964
3	365289	93.375146728067	339105
3	365308	93.388986728067	339246
3	365943	93.59876899642	339387
3	366528	93.747818264829	339528
3	366650	93.761658264829	339669
3	366714	93.789338264829	339810
3	366915	93.817018264829	339951
3	366958	93.830858264829	340092
3	366972	93.833626728067	340233
3	367782	94.088456785734	340374
3	368021	94.116136785734	340515
3	368070	94.129976785734	340656
3	368634	94.283978264829	340797
3	368796	94.311658264829	340938
3	368859	94.325498264829	341079
3	368873	94.333626728067	341220
3	368892	94.339338264829	341361
3	369016	94.353178264829	341502
3	369095	94.38342031478	341643
3	369348	94.433626728067	341784
3	369367	94.438456785734	341925
3	369487	94.452296785734	342066
3	369501	94.466136785734	342207
3	369528	94.479976785734	342348
3	370050	94.633626728067	342489
3	371921	95.133626728067	342630
3	371923	95.133626728067	342771
3	371957	95.147466728067	342912
3	371959	95.147466728067	343053
3	372094	95.161306728067	343194
3	372096	95.161306728067	343335
3	373062	95.433626728067	343476
3	373276	95.48342031478	343617
3	373287	95.48396899642	343758
3	374167	95.733626728067	343899
3	374186	95.747466728067	344040
3	374353	95.775146728067	344181
3	375749	96.183626728067	344322
3	375767	96.197466728067	344463
3	375921	96.211306728067	344604
3	375983	96.225146728067	344745
3	376001	96.233626728067	344886
3	376019	96.238986728067	345027
3	376138	96.252826728067	345168
3	376990	96.533626728067	345309
3	377187	96.58396899642	345450
3	377205	96.59780899642	345591
3	377399	96.62548899642	345732
3	380581	97.548426728067	345873
3	380745	97.583626728067	346014
3	380763	97.597466728067	346155
3	380919	97.611306728067	346296
3	381435	97.743726529761	346437
3	381554	97.757566529761	346578
3	381575	97.771406529761	346719
3	381593	97.785246529761	346860
3	381611	97.799086529761	347001
3	382023	97.883626728067	347142
3	383285	98.238456785734	347283
3	384491	98.59780899642	347424
3	384670	98.62548899642	347565
3	384699	98.63932899642	347706
3	385383	98.843726529761	347847
3	385740	98.933626728067	347988
3	385742	98.933626728067	348129
3	385778	98.947466728067	348270
3	385780	98.947466728067	348411
3	385917	98.961306728067	348552
3	385986	98.983626728067	348693
3	387556	99.483626728067	348834
3	388700	99.88396899642	348975
3	389020	99.98396899642	349116
3	393491	101.348426728067	349257
3	393613	101.362266728067	349398
3	393665	101.376106728067	349539
3	393836	101.417626728067	349680
3	393855	101.431466728067	349821
3	393874	101.445306728067	349962
3	393996	101.459146728067	350103
3	394019	101.472986728067	350244
3	394067	101.486826728067	350385
3	394251	101.505545127628	350526
3	395066	101.783626728067	350667
3	395084	101.797466728067	350808
3	395236	101.811306728067	350949
3	395275	101.825146728067	351090
3	395293	101.838986728067	351231
3	395997	102.043584192201	351372
3	396118	102.057424192201	351513
3	396169	102.071264192201	351654
3	396187	102.085104192201	351795
3	396200	102.098944192201	351936
3	396356	102.112784192201	352077
3	398048	102.62548899642	352218
3	398066	102.63932899642	352359
3	399712	103.13396899642	352500
3	399836	103.16164899642	352641
3	400266	103.283626728067	352782
3	401499	103.683626728067	352923
3	401517	103.697466728067	353064
3	401903	103.793584192201	353205
3	402063	103.807424192201	353346
3	402165	103.821264192201	353487
3	402183	103.835104192201	353628
3	402196	103.848944192201	353769
3	402315	103.862784192201	353910
3	402349	103.876624192201	354051
3	402367	103.890464192201	354192
3	402519	103.904304192201	354333
3	402549	103.918144192201	354474
3	402571	103.931984192201	354615
3	402803	103.983626728067	354756
3	403466	104.193096785734	354897
3	403694	104.23396899642	355038
3	403712	104.24780899642	355179
3	403837	104.26164899642	355320
3	405292	104.698426728067	355461
3	405518	104.739289319829	355602
3	407494	105.33396899642	355743
3	409092	105.883626728067	355884
3	409110	105.897466728067	356025
3	409268	105.911306728067	356166
3	409322	105.925146728067	356307
3	409352	105.938986728067	356448
3	409469	105.952826728067	356589
3	409487	105.966666728067	356730
3	409505	105.980506728067	356871
3	409523	105.994346728067	357012
3	411548	106.583626728067	357153
3	416138	107.983626728067	357294
3	418593	108.683626728067	357435
3	418769	108.711306728067	357576
3	418808	108.725146728067	357717
3	418826	108.738986728067	357858
3	418942	108.752826728067	357999
3	418984	108.766666728067	358140
3	419020	108.780506728067	358281
3	419038	108.794346728067	358422
3	419244	108.84780899642	358563
3	427222	111.283626728067	358704
3	427235	111.297466728067	358845
3	427387	111.311306728067	358986
3	427421	111.325146728067	359127
3	427439	111.338986728067	359268
3	427558	111.352826728067	359409
3	427588	111.366666728067	359550
3	427606	111.380506728067	359691
3	428171	111.533626728067	359832
3	428190	111.547466728067	359973
3	431632	112.533626728067	360114
3	431650	112.547466728067	360255
3	431773	112.561306728067	360396
3	431833	112.575146728067	360537
3	431851	112.588986728067	360678
3	432005	112.602826728067	360819
3	432039	112.616666728067	360960
3	432083	112.630506728067	361101
3	434773	113.43396899642	361242
3	435935	113.733626728067	361383
3	435949	113.747466728067	361524
3	436067	113.761306728067	361665
3	436086	113.775146728067	361806
3	436105	113.788986728067	361947
3	436287	113.816666728067	362088
3	436324	113.830506728067	362229
3	437854	114.283626728067	362370
3	437873	114.297466728067	362511
3	442668	115.788266728067	362652
3	444976	116.483626728067	362793

