version 2
run Cgw-0-20190930-21:51:17-10823
attr configname Cgw
attr datetime 20190930-21:51:17
attr experiment Cgw
attr inifile SimV2.ini
attr iterationvars ""
attr iterationvarsf ""
attr measurement ""
attr network NetworkTormV2
attr processid 10823
attr repetition 0
attr replication #0
attr resultdir results
attr runnumber 0
attr seedset 0
param **.mobility.traceFile "\"paths/Cgw.movements\""
param **.numNodes 4
param **.application.usedRNG 1
param **.application.dataGenerationInterval 1s
param **.application.dataSizeInBytes 10
param **.application.ttl 999999s
param **application.nodesThatGen true
param **application.nodesGenMsg "\"0,1,2,3\""
param **application.startMultipleMsg false
param **application.numMultipleMsg 100
param **application.hopsListSize 50
param **.application.endGeneratingMsg 90s
param **.routingLayer "\"RoutingLqeGw\""
param **.routing.maximumCacheSize 5000byte
param **.routing.maximumHopCount 25
param **.routing.useTTL false
param **.routing.waitBFsend 0.5
param **.routing.max_age 999999s
param **.routing.gateway_list "\"\""
param **.routing.actual_gateway "\"\""
param **.routing.gwCheckPeriod 5s
param **.numNodes 2
param **.application.usedRNG 1
param **.application.dataGenerationInterval 1ms
param **.application.dataSizeInBytes 10
param **.application.ttl 999999s
param **application.destinationAddr "\"Wf:00:00:00:00:02\""
param **application.destinationBTAddr "\"Bt:00:00:00:00:02\""
param **application.nodesThatGen true
param **application.nodesGenMsg "\"0\""
param **application.startMultipleMsg true
param **application.numMultipleMsg 100
param **application.hopsListSize 50
param **.application.endGeneratingMsg 999999s
param **.routingLayer "\"RoutingLqeGw\""
param **.routing.maximumCacheSize 5000byte
param **.routing.maximumHopCount 25
param **.routing.useTTL false
param **.routing.waitBFsend 0.5
param **.routing.max_age 999999s
param **.routing.gateway_list "\"Wf:00:00:00:00:02;0|.\""
param **.routing.actual_gateway "\"Wf:00:00:00:00:02\""
param **.routing.gwCheckPeriod 5s
param **.neighboring.antiEntropyInterval 500ms
param **.neighboring.maximumRandomBackoffDuration 1s
param **.neighboring.delayPerDataMsg 0.1
param **neighboring.usedRNG 2
param **.neighboring.GWAddr "\"Wf:00:00:00:00:02\""
param **.neighboring.sendWifiFirst true
param **.neighboring.maxLengthGraph 20
param **.neighboring.max_age 999999s
param **.neighboring.max_absent_time 1s
param **.wirelessIfc.wirelessRange 40m
param **.wirelessIfc.neighbourScanInterval 50ms
param **.wirelessIfc.bandwidthBitRate 100000bps
param **.wirelessIfc.wirelessHeaderSize 32byte
param **.wirelessIfc.minSSI -90
param **.wirelessIfc.limitQueueTime 400ms
param **.wirelessIfc.my_limit_rate 0bps
param **.bluetoothIfc.wirelessRange 40m
param **.bluetoothIfc.neighbourScanInterval 100ms
param **.bluetoothIfc.bandwidthBitRate 100000bps
param **.bluetoothIfc.wirelessHeaderSize 16byte
param **.bluetoothIfc.minSSI -90
param **.mobilityType "\"BonnMotionMobility\""
param **.mobility.traceFile "\"paths/Moves2.movements\""
param **.mobility.is3D false
param **.mobility.nodeId -1

vector 0 NetworkTormV2 neighbourhoodSize:vector ETV
attr source neighbourhoodSize
vector 1 NetworkTormV2 deliveryRatio:vector ETV
attr source sum(totalDataBytesReceived)/sum(totalDataBytesReceivableByAllNodes)
vector 2 NetworkTormV2 dataBytesReceivedSum:vector ETV
attr source sum(dataBytesReceived)
vector 3 NetworkTormV2 totalBytesReceivedSum:vector ETV
attr source sum(totalBytesReceived)
0	13	0.05	1
0	14	0.05	2
0	15	0.05	1
0	16	0.05	0
0	30	0.1	1
0	32	0.1	2
0	34	0.1	1
0	36	0.1	0
0	38	0.1	1
0	39	0.1	2
0	40	0.1	1
0	41	0.1	0
0	64	0.15	1
0	65	0.15	2
0	66	0.15	1
0	67	0.15	0
0	80	0.2	1
0	81	0.2	2
0	82	0.2	1
0	83	0.2	0
0	85	0.2	1
0	86	0.2	2
0	87	0.2	1
0	88	0.2	0
0	107	0.25	1
0	108	0.25	2
0	109	0.25	1
0	110	0.25	0
0	123	0.3	1
0	124	0.3	2
0	125	0.3	1
0	126	0.3	0
0	128	0.3	1
0	129	0.3	2
0	130	0.3	1
0	131	0.3	0
0	150	0.35	1
0	151	0.35	2
0	152	0.35	1
0	153	0.35	0
0	166	0.4	1
0	167	0.4	2
0	168	0.4	1
0	169	0.4	0
0	171	0.4	1
0	172	0.4	2
0	173	0.4	1
0	174	0.4	0
0	193	0.45	1
0	194	0.45	2
0	195	0.45	1
0	196	0.45	0
0	209	0.5	1
0	210	0.5	2
0	211	0.5	1
0	212	0.5	0
0	214	0.5	1
0	215	0.5	2
0	216	0.5	1
0	217	0.5	0
0	236	0.55	1
0	237	0.55	2
0	238	0.55	1
0	239	0.55	0
0	252	0.6	1
0	253	0.6	2
0	254	0.6	1
0	255	0.6	0
0	257	0.6	1
0	258	0.6	2
0	259	0.6	1
0	260	0.6	0
0	279	0.65	1
0	280	0.65	2
0	281	0.65	1
0	282	0.65	0
0	295	0.7	1
0	296	0.7	2
0	297	0.7	1
0	298	0.7	0
0	300	0.7	1
0	301	0.7	2
0	302	0.7	1
0	303	0.7	0
0	322	0.75	1
0	323	0.75	2
0	324	0.75	1
0	325	0.75	0
0	338	0.8	1
0	339	0.8	2
0	340	0.8	1
0	341	0.8	0
0	343	0.8	1
0	344	0.8	2
0	345	0.8	1
0	346	0.8	0
0	365	0.85	1
0	366	0.85	2
0	367	0.85	1
0	368	0.85	0
0	381	0.9	1
0	382	0.9	2
0	383	0.9	1
0	384	0.9	0
0	386	0.9	1
0	387	0.9	2
0	388	0.9	1
0	389	0.9	0
0	408	0.95	1
0	409	0.95	2
0	410	0.95	1
0	411	0.95	0
0	424	1	1
0	425	1	2
0	426	1	1
0	427	1	0
0	429	1	1
0	430	1	2
0	431	1	1
0	432	1	0
0	451	1.05	1
0	452	1.05	2
0	453	1.05	1
0	454	1.05	0
0	471	1.1	1
0	472	1.1	2
0	473	1.1	1
0	474	1.1	0
0	476	1.1	1
0	477	1.1	2
0	478	1.1	1
0	479	1.1	0
0	558	1.15	1
0	559	1.15	2
0	560	1.15	1
0	561	1.15	0
0	574	1.2	1
0	575	1.2	2
0	576	1.2	1
0	577	1.2	0
0	579	1.2	1
0	580	1.2	2
0	581	1.2	1
0	582	1.2	0
0	601	1.25	1
0	602	1.25	2
0	603	1.25	1
0	604	1.25	0
0	617	1.3	1
0	618	1.3	2
0	619	1.3	1
0	620	1.3	0
0	622	1.3	1
0	623	1.3	2
0	624	1.3	1
0	625	1.3	0
0	644	1.35	1
0	645	1.35	2
0	646	1.35	1
0	647	1.35	0
0	660	1.4	1
0	661	1.4	2
0	662	1.4	1
0	663	1.4	0
0	665	1.4	1
0	666	1.4	2
0	667	1.4	1
0	668	1.4	0
0	687	1.45	1
0	688	1.45	2
0	689	1.45	1
0	690	1.45	0
0	703	1.5	1
0	704	1.5	2
0	705	1.5	1
0	706	1.5	0
0	708	1.5	1
0	709	1.5	2
0	710	1.5	1
0	711	1.5	0
0	730	1.55	1
0	731	1.55	2
0	732	1.55	1
0	733	1.55	0
0	746	1.6	1
0	747	1.6	2
0	748	1.6	1
0	749	1.6	0
0	751	1.6	1
0	752	1.6	2
0	753	1.6	1
0	754	1.6	0
0	773	1.65	1
0	774	1.65	2
0	775	1.65	1
0	776	1.65	0
0	845	1.7	1
0	846	1.7	2
0	847	1.7	1
0	848	1.7	0
0	850	1.7	1
0	851	1.7	2
0	852	1.7	1
0	853	1.7	0
0	872	1.75	1
0	873	1.75	2
0	874	1.75	1
0	875	1.75	0
0	888	1.8	1
0	889	1.8	2
0	890	1.8	1
0	891	1.8	0
0	893	1.8	1
0	894	1.8	2
0	895	1.8	1
0	896	1.8	0
0	915	1.85	1
0	916	1.85	2
0	917	1.85	1
0	918	1.85	0
0	931	1.9	1
0	932	1.9	2
0	933	1.9	1
0	934	1.9	0
0	936	1.9	1
0	937	1.9	2
0	938	1.9	1
0	939	1.9	0
0	958	1.95	1
0	959	1.95	2
0	960	1.95	1
0	961	1.95	0
0	974	2	1
0	975	2	2
0	976	2	1
0	977	2	0
0	979	2	1
0	980	2	2
0	981	2	1
0	982	2	0
0	1001	2.05	1
0	1002	2.05	2
0	1003	2.05	1
0	1004	2.05	0
0	1021	2.1	1
0	1022	2.1	2
0	1023	2.1	1
0	1024	2.1	0
0	1026	2.1	1
0	1027	2.1	2
0	1028	2.1	1
0	1029	2.1	0
0	1052	2.15	1
0	1053	2.15	2
0	1054	2.15	1
0	1055	2.15	0
0	1068	2.2	1
0	1069	2.2	2
0	1070	2.2	1
0	1071	2.2	0
0	1073	2.2	1
0	1074	2.2	2
0	1075	2.2	1
0	1076	2.2	0
0	1151	2.25	1
0	1152	2.25	2
0	1153	2.25	1
0	1154	2.25	0
0	1167	2.3	1
0	1168	2.3	2
0	1169	2.3	1
0	1170	2.3	0
0	1172	2.3	1
0	1173	2.3	2
0	1174	2.3	1
0	1175	2.3	0
0	1194	2.35	1
0	1195	2.35	2
0	1196	2.35	1
0	1197	2.35	0
0	1210	2.4	1
0	1211	2.4	2
0	1212	2.4	1
0	1213	2.4	0
0	1215	2.4	1
0	1216	2.4	2
0	1217	2.4	1
0	1218	2.4	0
0	1237	2.45	1
0	1238	2.45	2
0	1239	2.45	1
0	1240	2.45	0
0	1253	2.5	1
0	1254	2.5	2
0	1255	2.5	1
0	1256	2.5	0
0	1258	2.5	1
0	1259	2.5	2
0	1260	2.5	1
0	1261	2.5	0
0	1280	2.55	1
0	1281	2.55	2
0	1282	2.55	1
0	1283	2.55	0
0	1296	2.6	1
0	1297	2.6	2
0	1298	2.6	1
0	1299	2.6	0
0	1301	2.6	1
0	1302	2.6	2
0	1303	2.6	1
0	1304	2.6	0
0	1323	2.65	1
0	1324	2.65	2
0	1325	2.65	1
0	1326	2.65	0
0	1339	2.7	1
0	1340	2.7	2
0	1341	2.7	1
0	1342	2.7	0
0	1344	2.7	1
0	1345	2.7	2
0	1346	2.7	1
0	1347	2.7	0
0	1366	2.75	1
0	1367	2.75	2
0	1368	2.75	1
0	1369	2.75	0
0	1438	2.8	1
0	1439	2.8	2
0	1440	2.8	1
0	1441	2.8	0
0	1443	2.8	1
0	1444	2.8	2
0	1445	2.8	1
0	1446	2.8	0
0	1465	2.85	1
0	1466	2.85	2
0	1467	2.85	1
0	1468	2.85	0
0	1481	2.9	1
0	1482	2.9	2
0	1483	2.9	1
0	1484	2.9	0
0	1486	2.9	1
0	1487	2.9	2
0	1488	2.9	1
0	1489	2.9	0
0	1508	2.95	1
0	1509	2.95	2
0	1510	2.95	1
0	1511	2.95	0
0	1524	3	1
0	1525	3	2
0	1526	3	1
0	1527	3	0
0	1529	3	1
0	1530	3	2
0	1531	3	1
0	1532	3	0
0	1551	3.05	1
0	1552	3.05	2
0	1553	3.05	1
0	1554	3.05	0
0	1571	3.1	1
0	1572	3.1	2
0	1573	3.1	1
0	1574	3.1	0
0	1576	3.1	1
0	1577	3.1	2
0	1578	3.1	1
0	1579	3.1	0
0	1602	3.15	1
0	1603	3.15	2
0	1604	3.15	1
0	1605	3.15	0
0	1618	3.2	1
0	1619	3.2	2
0	1620	3.2	1
0	1621	3.2	0
0	1623	3.2	1
0	1624	3.2	2
0	1625	3.2	1
0	1626	3.2	0
0	1645	3.25	1
0	1646	3.25	2
0	1647	3.25	1
0	1648	3.25	0
0	1661	3.3	1
0	1662	3.3	2
0	1663	3.3	1
0	1664	3.3	0
0	1666	3.3	1
0	1667	3.3	2
0	1668	3.3	1
0	1669	3.3	0
0	1744	3.35	1
0	1745	3.35	2
0	1746	3.35	1
0	1747	3.35	0
0	1760	3.4	1
0	1761	3.4	2
0	1762	3.4	1
0	1763	3.4	0
0	1765	3.4	1
0	1766	3.4	2
0	1767	3.4	1
0	1768	3.4	0
0	1787	3.45	1
0	1788	3.45	2
0	1789	3.45	1
0	1790	3.45	0
0	1803	3.5	1
0	1804	3.5	2
0	1805	3.5	1
0	1806	3.5	0
0	1808	3.5	1
0	1809	3.5	2
0	1810	3.5	1
0	1811	3.5	0
0	1830	3.55	1
0	1831	3.55	2
0	1832	3.55	1
0	1833	3.55	0
0	1846	3.6	1
0	1847	3.6	2
0	1848	3.6	1
0	1849	3.6	0
0	1851	3.6	1
0	1852	3.6	2
0	1853	3.6	1
0	1854	3.6	0
0	1873	3.65	1
0	1874	3.65	2
0	1875	3.65	1
0	1876	3.65	0
0	1889	3.7	1
0	1890	3.7	2
0	1891	3.7	1
0	1892	3.7	0
0	1894	3.7	1
0	1895	3.7	2
0	1896	3.7	1
0	1897	3.7	0
0	1916	3.75	1
0	1917	3.75	2
0	1918	3.75	1
0	1919	3.75	0
0	1932	3.8	1
0	1933	3.8	2
0	1934	3.8	1
0	1935	3.8	0
0	1937	3.8	1
0	1938	3.8	2
0	1939	3.8	1
0	1940	3.8	0
0	1959	3.85	1
0	1960	3.85	2
0	1961	3.85	1
0	1962	3.85	0
0	2027	3.9	1
0	2028	3.9	2
0	2029	3.9	1
0	2030	3.9	0
0	2032	3.9	1
0	2033	3.9	2
0	2034	3.9	1
0	2035	3.9	0
0	2054	3.95	1
0	2055	3.95	2
0	2056	3.95	1
0	2057	3.95	0
0	2070	4	1
0	2071	4	2
0	2072	4	1
0	2073	4	0
0	2075	4	1
0	2076	4	2
0	2077	4	1
0	2078	4	0
0	2097	4.05	1
0	2098	4.05	2
0	2099	4.05	1
0	2100	4.05	0
0	2117	4.1	1
0	2118	4.1	2
0	2119	4.1	1
0	2120	4.1	0
0	2122	4.1	1
0	2123	4.1	2
0	2124	4.1	1
0	2125	4.1	0
0	2148	4.15	1
0	2149	4.15	2
0	2150	4.15	1
0	2151	4.15	0
0	2164	4.2	1
0	2165	4.2	2
0	2166	4.2	1
0	2167	4.2	0
0	2169	4.2	1
0	2170	4.2	2
0	2171	4.2	1
0	2172	4.2	0
0	2191	4.25	1
0	2192	4.25	2
0	2193	4.25	1
0	2194	4.25	0
0	2207	4.3	1
0	2208	4.3	2
0	2209	4.3	1
0	2210	4.3	0
0	2212	4.3	1
0	2213	4.3	2
0	2214	4.3	1
0	2215	4.3	0
0	2234	4.35	1
0	2235	4.35	2
0	2236	4.35	1
0	2237	4.35	0
0	2250	4.4	1
0	2251	4.4	2
0	2252	4.4	1
0	2253	4.4	0
0	2255	4.4	1
0	2256	4.4	2
0	2257	4.4	1
0	2258	4.4	0
0	2333	4.45	1
0	2334	4.45	2
0	2335	4.45	1
0	2336	4.45	0
0	2349	4.5	1
0	2350	4.5	2
0	2351	4.5	1
0	2352	4.5	0
0	2354	4.5	1
0	2355	4.5	2
0	2356	4.5	1
0	2357	4.5	0
0	2376	4.55	1
0	2377	4.55	2
0	2378	4.55	1
0	2379	4.55	0
0	2392	4.6	1
0	2393	4.6	2
0	2394	4.6	1
0	2395	4.6	0
0	2397	4.6	1
0	2398	4.6	2
0	2399	4.6	1
0	2400	4.6	0
0	2419	4.65	1
0	2420	4.65	2
0	2421	4.65	1
0	2422	4.65	0
0	2435	4.7	1
0	2436	4.7	2
0	2437	4.7	1
0	2438	4.7	0
0	2440	4.7	1
0	2441	4.7	2
0	2442	4.7	1
0	2443	4.7	0
0	2462	4.75	1
0	2463	4.75	2
0	2464	4.75	1
0	2465	4.75	0
0	2478	4.8	1
0	2479	4.8	2
0	2480	4.8	1
0	2481	4.8	0
0	2483	4.8	1
0	2484	4.8	2
0	2485	4.8	1
0	2486	4.8	0
0	2505	4.85	1
0	2506	4.85	2
0	2507	4.85	1
0	2508	4.85	0
0	2521	4.9	1
0	2522	4.9	2
0	2523	4.9	1
0	2524	4.9	0
0	2526	4.9	1
0	2527	4.9	2
0	2528	4.9	1
0	2529	4.9	0
0	2548	4.95	1
0	2549	4.95	2
0	2550	4.95	1
0	2551	4.95	0
0	2613	5	1
0	2614	5	2
0	2615	5	1
0	2616	5	0
0	2618	5	1
0	2619	5	2
0	2620	5	1
0	2621	5	0
0	2640	5.05	1
0	2641	5.05	2
0	2642	5.05	1
0	2643	5.05	0
0	2660	5.1	1
0	2661	5.1	2
0	2662	5.1	1
0	2663	5.1	0
0	2665	5.1	1
0	2666	5.1	2
0	2667	5.1	1
0	2668	5.1	0
0	2691	5.15	1
0	2692	5.15	2
0	2693	5.15	1
0	2694	5.15	0
0	2707	5.2	1
0	2708	5.2	2
0	2709	5.2	1
0	2710	5.2	0
0	2712	5.2	1
0	2713	5.2	2
0	2714	5.2	1
0	2715	5.2	0
0	2734	5.25	1
0	2735	5.25	2
0	2736	5.25	1
0	2737	5.25	0
0	2750	5.3	1
0	2751	5.3	2
0	2752	5.3	1
0	2753	5.3	0
0	2755	5.3	1
0	2756	5.3	2
0	2757	5.3	1
0	2758	5.3	0
0	2777	5.35	1
0	2778	5.35	2
0	2779	5.35	1
0	2780	5.35	0
0	2793	5.4	1
0	2794	5.4	2
0	2795	5.4	1
0	2796	5.4	0
0	2798	5.4	1
0	2799	5.4	2
0	2800	5.4	1
0	2801	5.4	0
0	2820	5.45	1
0	2821	5.45	2
0	2822	5.45	1
0	2823	5.45	0
0	2839	5.5	1
0	2840	5.5	2
0	2841	5.5	1
0	2842	5.5	0
0	2844	5.5	1
0	2845	5.5	2
0	2846	5.5	1
0	2847	5.5	0
0	2908	5.55	1
0	2909	5.55	2
0	2910	5.55	1
0	2911	5.55	0
0	2924	5.6	1
0	2925	5.6	2
0	2926	5.6	1
0	2927	5.6	0
0	2929	5.6	1
0	2930	5.6	2
0	2931	5.6	1
0	2932	5.6	0
0	2951	5.65	1
0	2952	5.65	2
0	2953	5.65	1
0	2954	5.65	0
0	2981	5.7	1
0	2982	5.7	2
0	2983	5.7	1
0	2984	5.7	0
0	2986	5.7	1
0	2987	5.7	2
0	2988	5.7	1
0	2989	5.7	0
0	3008	5.75	1
0	3009	5.75	2
0	3010	5.75	1
0	3011	5.75	0
0	3024	5.8	1
0	3025	5.8	2
0	3026	5.8	1
0	3027	5.8	0
0	3029	5.8	1
0	3030	5.8	2
0	3031	5.8	1
0	3032	5.8	0
0	3051	5.85	1
0	3052	5.85	2
0	3053	5.85	1
0	3054	5.85	0
0	3067	5.9	1
0	3068	5.9	2
0	3069	5.9	1
0	3070	5.9	0
0	3072	5.9	1
0	3073	5.9	2
0	3074	5.9	1
0	3075	5.9	0
0	3094	5.95	1
0	3095	5.95	2
0	3096	5.95	1
0	3097	5.95	0
0	3113	6	1
0	3114	6	2
0	3115	6	1
0	3116	6	0
0	3118	6	1
0	3119	6	2
0	3120	6	1
0	3121	6	0
0	3140	6.05	1
0	3141	6.05	2
0	3142	6.05	1
0	3143	6.05	0
0	3191	6.1	1
0	3192	6.1	2
0	3193	6.1	1
0	3194	6.1	0
0	3196	6.1	1
0	3197	6.1	2
0	3198	6.1	1
0	3199	6.1	0
0	3222	6.15	1
0	3223	6.15	2
0	3224	6.15	1
0	3225	6.15	0
0	3238	6.2	1
0	3239	6.2	2
0	3240	6.2	1
0	3241	6.2	0
0	3243	6.2	1
0	3244	6.2	2
0	3245	6.2	1
0	3246	6.2	0
0	3279	6.25	1
0	3280	6.25	2
0	3281	6.25	1
0	3282	6.25	0
0	3295	6.3	1
0	3296	6.3	2
0	3297	6.3	1
0	3298	6.3	0
0	3300	6.3	1
0	3301	6.3	2
0	3302	6.3	1
0	3303	6.3	0
0	3322	6.35	1
0	3323	6.35	2
0	3324	6.35	1
0	3325	6.35	0
0	3338	6.4	1
0	3339	6.4	2
0	3340	6.4	1
0	3341	6.4	0
0	3343	6.4	1
0	3344	6.4	2
0	3345	6.4	1
0	3346	6.4	0
0	3365	6.45	1
0	3366	6.45	2
0	3367	6.45	1
0	3368	6.45	0
0	3384	6.5	1
0	3385	6.5	2
0	3386	6.5	1
0	3387	6.5	0
0	3389	6.5	1
0	3390	6.5	2
0	3391	6.5	1
0	3392	6.5	0
0	3411	6.55	1
0	3412	6.55	2
0	3413	6.55	1
0	3414	6.55	0
0	3427	6.6	1
0	3428	6.6	2
0	3429	6.6	1
0	3430	6.6	0
0	3432	6.6	1
0	3433	6.6	2
0	3434	6.6	1
0	3435	6.6	0
0	3547	6.65	1
0	3548	6.65	2
0	3549	6.65	1
0	3550	6.65	0
0	3620	6.7	1
0	3621	6.7	2
0	3622	6.7	1
0	3623	6.7	0
0	3625	6.7	1
0	3626	6.7	2
0	3627	6.7	1
0	3628	6.7	0
0	3678	6.75	1
0	3679	6.75	2
0	3680	6.75	1
0	3681	6.75	0
0	3722	6.8	1
0	3723	6.8	2
0	3724	6.8	1
0	3725	6.8	0
0	3727	6.8	1
0	3728	6.8	2
0	3729	6.8	1
0	3730	6.8	0
0	3749	6.85	1
0	3750	6.85	2
0	3751	6.85	1
0	3752	6.85	0
0	3765	6.9	1
0	3766	6.9	2
0	3767	6.9	1
0	3768	6.9	0
0	3770	6.9	1
0	3771	6.9	2
0	3772	6.9	1
0	3773	6.9	0
0	3792	6.95	1
0	3793	6.95	2
0	3794	6.95	1
0	3795	6.95	0
0	3810	7	1
0	3811	7	2
0	3812	7	1
0	3813	7	0
0	3815	7	1
0	3816	7	2
0	3817	7	1
0	3818	7	0
0	3837	7.05	1
0	3838	7.05	2
0	3839	7.05	1
0	3840	7.05	0
0	3857	7.1	1
0	3858	7.1	2
0	3859	7.1	1
0	3860	7.1	0
0	3862	7.1	1
0	3863	7.1	2
0	3864	7.1	1
0	3865	7.1	0
0	3888	7.15	1
0	3889	7.15	2
0	3890	7.15	1
0	3891	7.15	0
0	3979	7.2	1
0	3980	7.2	2
0	3981	7.2	1
0	3982	7.2	0
0	3984	7.2	1
0	3985	7.2	2
0	3986	7.2	1
0	3987	7.2	0
0	4016	7.25	1
0	4017	7.25	2
0	4018	7.25	1
0	4019	7.25	0
0	4032	7.3	1
0	4033	7.3	2
0	4034	7.3	1
0	4035	7.3	0
0	4037	7.3	1
0	4038	7.3	2
0	4039	7.3	1
0	4040	7.3	0
0	4087	7.35	1
0	4088	7.35	2
0	4089	7.35	1
0	4090	7.35	0
0	4103	7.4	1
0	4104	7.4	2
0	4105	7.4	1
0	4106	7.4	0
0	4108	7.4	1
0	4109	7.4	2
0	4110	7.4	1
0	4111	7.4	0
0	4130	7.45	1
0	4131	7.45	2
0	4132	7.45	1
0	4133	7.45	0
0	4146	7.5	1
0	4147	7.5	2
0	4148	7.5	1
0	4149	7.5	0
0	4151	7.5	1
0	4152	7.5	2
0	4153	7.5	1
0	4154	7.5	0
0	4173	7.55	1
0	4174	7.55	2
0	4175	7.55	1
0	4176	7.55	0
0	4189	7.6	1
0	4190	7.6	2
0	4191	7.6	1
0	4192	7.6	0
0	4194	7.6	1
0	4195	7.6	2
0	4196	7.6	1
0	4197	7.6	0
0	4216	7.65	1
0	4217	7.65	2
0	4218	7.65	1
0	4219	7.65	0
0	4232	7.7	1
0	4233	7.7	2
0	4234	7.7	1
0	4235	7.7	0
0	4237	7.7	1
0	4238	7.7	2
0	4239	7.7	1
0	4240	7.7	0
0	4276	7.75	1
0	4277	7.75	2
0	4278	7.75	1
0	4279	7.75	0
0	4292	7.8	1
0	4293	7.8	2
0	4294	7.8	1
0	4295	7.8	0
0	4297	7.8	1
0	4298	7.8	2
0	4299	7.8	1
0	4300	7.8	0
0	4319	7.85	1
0	4320	7.85	2
0	4321	7.85	1
0	4322	7.85	0
0	4349	7.9	1
0	4350	7.9	2
0	4351	7.9	1
0	4352	7.9	0
0	4354	7.9	1
0	4355	7.9	2
0	4356	7.9	1
0	4357	7.9	0
0	4376	7.95	1
0	4377	7.95	2
0	4378	7.95	1
0	4379	7.95	0
0	4392	8	1
0	4393	8	2
0	4394	8	1
0	4395	8	0
0	4397	8	1
0	4398	8	2
0	4399	8	1
0	4400	8	0
0	4419	8.05	1
0	4420	8.05	2
0	4421	8.05	1
0	4422	8.05	0
0	4439	8.1	1
0	4440	8.1	2
0	4441	8.1	1
0	4442	8.1	0
0	4444	8.1	1
0	4445	8.1	2
0	4446	8.1	1
0	4447	8.1	0
0	4470	8.15	1
0	4471	8.15	2
0	4472	8.15	1
0	4473	8.15	0
0	4486	8.2	1
0	4487	8.2	2
0	4488	8.2	1
0	4489	8.2	0
0	4491	8.2	1
0	4492	8.2	2
0	4493	8.2	1
0	4494	8.2	0
0	4513	8.25	1
0	4514	8.25	2
0	4515	8.25	1
0	4516	8.25	0
0	4555	8.3	1
0	4556	8.3	2
0	4557	8.3	1
0	4558	8.3	0
0	4560	8.3	1
0	4561	8.3	2
0	4562	8.3	1
0	4563	8.3	0
0	4582	8.35	1
0	4583	8.35	2
0	4584	8.35	1
0	4585	8.35	0
0	4598	8.4	1
0	4599	8.4	2
0	4600	8.4	1
0	4601	8.4	0
0	4603	8.4	1
0	4604	8.4	2
0	4605	8.4	1
0	4606	8.4	0
0	4639	8.45	1
0	4640	8.45	2
0	4641	8.45	1
0	4642	8.45	0
0	4655	8.5	1
0	4656	8.5	2
0	4657	8.5	1
0	4658	8.5	0
0	4660	8.5	1
0	4661	8.5	2
0	4662	8.5	1
0	4663	8.5	0
0	4682	8.55	1
0	4683	8.55	2
0	4684	8.55	1
0	4685	8.55	0
0	4698	8.6	1
0	4699	8.6	2
0	4700	8.6	1
0	4701	8.6	0
0	4703	8.6	1
0	4704	8.6	2
0	4705	8.6	1
0	4706	8.6	0
0	4725	8.65	1
0	4726	8.65	2
0	4727	8.65	1
0	4728	8.65	0
0	4741	8.7	1
0	4742	8.7	2
0	4743	8.7	1
0	4744	8.7	0
0	4746	8.7	1
0	4747	8.7	2
0	4748	8.7	1
0	4749	8.7	0
0	4768	8.75	1
0	4769	8.75	2
0	4770	8.75	1
0	4771	8.75	0
0	4784	8.8	1
0	4785	8.8	2
0	4786	8.8	1
0	4787	8.8	0
0	4789	8.8	1
0	4790	8.8	2
0	4791	8.8	1
0	4792	8.8	0
0	4825	8.85	1
0	4826	8.85	2
0	4827	8.85	1
0	4828	8.85	0
0	4841	8.9	1
0	4842	8.9	2
0	4843	8.9	1
0	4844	8.9	0
0	4846	8.9	1
0	4847	8.9	2
0	4848	8.9	1
0	4849	8.9	0
0	4882	8.95	1
0	4883	8.95	2
0	4884	8.95	1
0	4885	8.95	0
0	4912	9	1
0	4913	9	2
0	4914	9	1
0	4915	9	0
0	4917	9	1
0	4918	9	2
0	4919	9	1
0	4920	9	0
0	4939	9.05	1
0	4940	9.05	2
0	4941	9.05	1
0	4942	9.05	0
0	4988	9.1	1
0	4989	9.1	2
0	4990	9.1	1
0	4991	9.1	0
0	4993	9.1	1
0	4994	9.1	2
0	4995	9.1	1
0	4996	9.1	0
0	5019	9.15	1
0	5020	9.15	2
0	5021	9.15	1
0	5022	9.15	0
0	5035	9.2	1
0	5036	9.2	2
0	5037	9.2	1
0	5038	9.2	0
0	5040	9.2	1
0	5041	9.2	2
0	5042	9.2	1
0	5043	9.2	0
0	5062	9.25	1
0	5063	9.25	2
0	5064	9.25	1
0	5065	9.25	0
0	5078	9.3	1
0	5079	9.3	2
0	5080	9.3	1
0	5081	9.3	0
0	5083	9.3	1
0	5084	9.3	2
0	5085	9.3	1
0	5086	9.3	0
0	5105	9.35	1
0	5106	9.35	2
0	5107	9.35	1
0	5108	9.35	0
0	5147	9.4	1
0	5148	9.4	2
0	5149	9.4	1
0	5150	9.4	0
0	5152	9.4	1
0	5153	9.4	2
0	5154	9.4	1
0	5155	9.4	0
0	5174	9.45	1
0	5175	9.45	2
0	5176	9.45	1
0	5177	9.45	0
0	5204	9.5	1
0	5205	9.5	2
0	5206	9.5	1
0	5207	9.5	0
0	5209	9.5	1
0	5210	9.5	2
0	5211	9.5	1
0	5212	9.5	0
0	5245	9.55	1
0	5246	9.55	2
0	5247	9.55	1
0	5248	9.55	0
0	5261	9.6	1
0	5262	9.6	2
0	5263	9.6	1
0	5264	9.6	0
0	5266	9.6	1
0	5267	9.6	2
0	5268	9.6	1
0	5269	9.6	0
0	5326	9.65	1
0	5327	9.65	2
0	5328	9.65	1
0	5329	9.65	0
0	5342	9.7	1
0	5343	9.7	2
0	5344	9.7	1
0	5345	9.7	0
0	5347	9.7	1
0	5348	9.7	2
0	5349	9.7	1
0	5350	9.7	0
0	5369	9.75	1
0	5370	9.75	2
0	5371	9.75	1
0	5372	9.75	0
0	5385	9.8	1
0	5386	9.8	2
0	5387	9.8	1
0	5388	9.8	0
0	5390	9.8	1
0	5391	9.8	2
0	5392	9.8	1
0	5393	9.8	0
0	5412	9.85	1
0	5413	9.85	2
0	5414	9.85	1
0	5415	9.85	0
0	5428	9.9	1
0	5429	9.9	2
0	5430	9.9	1
0	5431	9.9	0
0	5433	9.9	1
0	5434	9.9	2
0	5435	9.9	1
0	5436	9.9	0
0	5469	9.95	1
0	5470	9.95	2
0	5471	9.95	1
0	5472	9.95	0
0	5486	10	1
0	5487	10	2
0	5488	10	1
0	5489	10	0
0	5491	10	1
0	5492	10	2
0	5493	10	1
0	5494	10	0
0	5527	10.05	1
0	5528	10.05	2
0	5529	10.05	1
0	5530	10.05	0
0	5561	10.1	1
0	5562	10.1	2
0	5563	10.1	1
0	5564	10.1	0
0	5566	10.1	1
0	5567	10.1	2
0	5568	10.1	1
0	5569	10.1	0
0	5592	10.15	1
0	5593	10.15	2
0	5594	10.15	1
0	5595	10.15	0
0	5634	10.2	1
0	5635	10.2	2
0	5636	10.2	1
0	5637	10.2	0
0	5639	10.2	1
0	5640	10.2	2
0	5641	10.2	1
0	5642	10.2	0
0	5661	10.25	1
0	5662	10.25	2
0	5663	10.25	1
0	5664	10.25	0
0	5677	10.3	1
0	5678	10.3	2
0	5679	10.3	1
0	5680	10.3	0
0	5682	10.3	1
0	5683	10.3	2
0	5684	10.3	1
0	5685	10.3	0
0	5704	10.35	1
0	5705	10.35	2
0	5706	10.35	1
0	5707	10.35	0
0	5720	10.4	1
0	5721	10.4	2
0	5722	10.4	1
0	5723	10.4	0
0	5725	10.4	1
0	5726	10.4	2
0	5727	10.4	1
0	5728	10.4	0
0	5747	10.45	1
0	5748	10.45	2
0	5749	10.45	1
0	5750	10.45	0
0	5789	10.5	1
0	5790	10.5	2
0	5791	10.5	1
0	5792	10.5	0
0	5794	10.5	1
0	5795	10.5	2
0	5796	10.5	1
0	5797	10.5	0
0	5816	10.55	1
0	5817	10.55	2
0	5818	10.55	1
0	5819	10.55	0
0	5846	10.6	1
0	5847	10.6	2
0	5848	10.6	1
0	5849	10.6	0
0	5851	10.6	1
0	5852	10.6	2
0	5853	10.6	1
0	5854	10.6	0
0	5887	10.65	1
0	5888	10.65	2
0	5889	10.65	1
0	5890	10.65	0
0	5903	10.7	1
0	5904	10.7	2
0	5905	10.7	1
0	5906	10.7	0
0	5908	10.7	1
0	5909	10.7	2
0	5910	10.7	1
0	5911	10.7	0
0	5944	10.75	1
0	5945	10.75	2
0	5946	10.75	1
0	5947	10.75	0
0	5960	10.8	1
0	5961	10.8	2
0	5962	10.8	1
0	5963	10.8	0
0	5965	10.8	1
0	5966	10.8	2
0	5967	10.8	1
0	5968	10.8	0
0	5987	10.85	1
0	5988	10.85	2
0	5989	10.85	1
0	5990	10.85	0
0	6003	10.9	1
0	6004	10.9	2
0	6005	10.9	1
0	6006	10.9	0
0	6008	10.9	1
0	6009	10.9	2
0	6010	10.9	1
0	6011	10.9	0
0	6030	10.95	1
0	6031	10.95	2
0	6032	10.95	1
0	6033	10.95	0
0	6046	11	1
0	6047	11	2
0	6048	11	1
0	6049	11	0
0	6051	11	1
0	6052	11	2
0	6053	11	1
0	6054	11	0
0	6087	11.05	1
0	6088	11.05	2
0	6089	11.05	1
0	6090	11.05	0
0	6107	11.1	1
0	6108	11.1	2
0	6109	11.1	1
0	6110	11.1	0
0	6112	11.1	1
0	6113	11.1	2
0	6114	11.1	1
0	6115	11.1	0
0	6141	11.15	1
0	6142	11.15	2
0	6143	11.15	1
0	6144	11.15	0
0	6171	11.2	1
0	6172	11.2	2
0	6173	11.2	1
0	6174	11.2	0
0	6176	11.2	1
0	6177	11.2	2
0	6178	11.2	1
0	6179	11.2	0
0	6198	11.25	1
0	6199	11.25	2
0	6200	11.25	1
0	6201	11.25	0
0	6214	11.3	1
0	6215	11.3	2
0	6216	11.3	1
0	6217	11.3	0
0	6219	11.3	1
0	6220	11.3	2
0	6221	11.3	1
0	6222	11.3	0
0	6241	11.35	1
0	6242	11.35	2
0	6243	11.35	1
0	6244	11.35	0
0	6257	11.4	1
0	6258	11.4	2
0	6259	11.4	1
0	6260	11.4	0
0	6262	11.4	1
0	6263	11.4	2
0	6264	11.4	1
0	6265	11.4	0
0	6284	11.45	1
0	6285	11.45	2
0	6286	11.45	1
0	6287	11.45	0
0	6301	11.5	1
0	6302	11.5	2
0	6303	11.5	1
0	6304	11.5	0
0	6306	11.5	1
0	6307	11.5	2
0	6308	11.5	1
0	6309	11.5	0
0	6328	11.55	1
0	6329	11.55	2
0	6330	11.55	1
0	6331	11.55	0
0	6370	11.6	1
0	6371	11.6	2
0	6372	11.6	1
0	6373	11.6	0
0	6375	11.6	1
0	6376	11.6	2
0	6377	11.6	1
0	6378	11.6	0
0	6397	11.65	1
0	6398	11.65	2
0	6399	11.65	1
0	6400	11.65	0
0	6413	11.7	1
0	6414	11.7	2
0	6415	11.7	1
0	6416	11.7	0
0	6418	11.7	1
0	6419	11.7	2
0	6420	11.7	1
0	6421	11.7	0
0	6454	11.75	1
0	6455	11.75	2
0	6456	11.75	1
0	6457	11.75	0
0	6470	11.8	1
0	6471	11.8	2
0	6472	11.8	1
0	6473	11.8	0
0	6475	11.8	1
0	6476	11.8	2
0	6477	11.8	1
0	6478	11.8	0
0	6497	11.85	1
0	6498	11.85	2
0	6499	11.85	1
0	6500	11.85	0
0	6513	11.9	1
0	6514	11.9	2
0	6515	11.9	1
0	6516	11.9	0
0	6518	11.9	1
0	6519	11.9	2
0	6520	11.9	1
0	6521	11.9	0
0	6540	11.95	1
0	6541	11.95	2
0	6542	11.95	1
0	6543	11.95	0
0	6558	12	1
0	6559	12	2
0	6560	12	1
0	6561	12	0
0	6563	12	1
0	6564	12	2
0	6565	12	1
0	6566	12	0
0	6585	12.05	1
0	6586	12.05	2
0	6587	12.05	1
0	6588	12.05	0
0	6605	12.1	1
0	6606	12.1	2
0	6607	12.1	1
0	6608	12.1	0
0	6610	12.1	1
0	6611	12.1	2
0	6612	12.1	1
0	6613	12.1	0
0	6662	12.15	1
0	6663	12.15	2
0	6664	12.15	1
0	6665	12.15	0
0	6678	12.2	1
0	6679	12.2	2
0	6680	12.2	1
0	6681	12.2	0
0	6683	12.2	1
0	6684	12.2	2
0	6685	12.2	1
0	6686	12.2	0
0	6705	12.25	1
0	6706	12.25	2
0	6707	12.25	1
0	6708	12.25	0
0	6735	12.3	1
0	6736	12.3	2
0	6737	12.3	1
0	6738	12.3	0
0	6740	12.3	1
0	6741	12.3	2
0	6742	12.3	1
0	6743	12.3	0
0	6800	12.35	1
0	6801	12.35	2
0	6802	12.35	1
0	6803	12.35	0
0	6816	12.4	1
0	6817	12.4	2
0	6818	12.4	1
0	6819	12.4	0
0	6821	12.4	1
0	6822	12.4	2
0	6823	12.4	1
0	6824	12.4	0
0	6843	12.45	1
0	6844	12.45	2
0	6845	12.45	1
0	6846	12.45	0
0	6873	12.5	1
0	6874	12.5	2
0	6875	12.5	1
0	6876	12.5	0
0	6878	12.5	1
0	6879	12.5	2
0	6880	12.5	1
0	6881	12.5	0
0	6900	12.55	1
0	6901	12.55	2
0	6902	12.55	1
0	6903	12.55	0
0	6916	12.6	1
0	6917	12.6	2
0	6918	12.6	1
0	6919	12.6	0
0	6921	12.6	1
0	6922	12.6	2
0	6923	12.6	1
0	6924	12.6	0
0	6943	12.65	1
0	6944	12.65	2
0	6945	12.65	1
0	6946	12.65	0
0	6973	12.7	1
0	6974	12.7	2
0	6975	12.7	1
0	6976	12.7	0
0	6978	12.7	1
0	6979	12.7	2
0	6980	12.7	1
0	6981	12.7	0
0	7000	12.75	1
0	7001	12.75	2
0	7002	12.75	1
0	7003	12.75	0
0	7016	12.8	1
0	7017	12.8	2
0	7018	12.8	1
0	7019	12.8	0
0	7021	12.8	1
0	7022	12.8	2
0	7023	12.8	1
0	7024	12.8	0
0	7053	12.85	1
0	7054	12.85	2
0	7055	12.85	1
0	7056	12.85	0
0	7083	12.9	1
0	7084	12.9	2
0	7085	12.9	1
0	7086	12.9	0
0	7088	12.9	1
0	7089	12.9	2
0	7090	12.9	1
0	7091	12.9	0
0	7110	12.95	1
0	7111	12.95	2
0	7112	12.95	1
0	7113	12.95	0
0	7126	13	1
0	7127	13	2
0	7128	13	1
0	7129	13	0
0	7131	13	1
0	7132	13	2
0	7133	13	1
0	7134	13	0
0	7167	13.05	1
0	7168	13.05	2
0	7169	13.05	1
0	7170	13.05	0
0	7187	13.1	1
0	7188	13.1	2
0	7189	13.1	1
0	7190	13.1	0
0	7192	13.1	1
0	7193	13.1	2
0	7194	13.1	1
0	7195	13.1	0
0	7218	13.15	1
0	7219	13.15	2
0	7220	13.15	1
0	7221	13.15	0
0	7234	13.2	1
0	7235	13.2	2
0	7236	13.2	1
0	7237	13.2	0
0	7239	13.2	1
0	7240	13.2	2
0	7241	13.2	1
0	7242	13.2	0
0	7271	13.25	1
0	7272	13.25	2
0	7273	13.25	1
0	7274	13.25	0
0	7287	13.3	1
0	7288	13.3	2
0	7289	13.3	1
0	7290	13.3	0
0	7292	13.3	1
0	7293	13.3	2
0	7294	13.3	1
0	7295	13.3	0
0	7314	13.35	1
0	7315	13.35	2
0	7316	13.35	1
0	7317	13.35	0
0	7344	13.4	1
0	7345	13.4	2
0	7346	13.4	1
0	7347	13.4	0
0	7349	13.4	1
0	7350	13.4	2
0	7351	13.4	1
0	7352	13.4	0
0	7397	13.45	1
0	7398	13.45	2
0	7399	13.45	1
0	7400	13.45	0
0	7413	13.5	1
0	7414	13.5	2
0	7415	13.5	1
0	7416	13.5	0
0	7418	13.5	1
0	7419	13.5	2
0	7420	13.5	1
0	7421	13.5	0
0	7440	13.55	1
0	7441	13.55	2
0	7442	13.55	1
0	7443	13.55	0
0	7470	13.6	1
0	7471	13.6	2
0	7472	13.6	1
0	7473	13.6	0
0	7475	13.6	1
0	7476	13.6	2
0	7477	13.6	1
0	7478	13.6	0
0	7497	13.65	1
0	7498	13.65	2
0	7499	13.65	1
0	7500	13.65	0
0	7513	13.7	1
0	7514	13.7	2
0	7515	13.7	1
0	7516	13.7	0
0	7518	13.7	1
0	7519	13.7	2
0	7520	13.7	1
0	7521	13.7	0
0	7540	13.75	1
0	7541	13.75	2
0	7542	13.75	1
0	7543	13.75	0
0	7582	13.8	1
0	7583	13.8	2
0	7584	13.8	1
0	7585	13.8	0
0	7587	13.8	1
0	7588	13.8	2
0	7589	13.8	1
0	7590	13.8	0
0	7609	13.85	1
0	7610	13.85	2
0	7611	13.85	1
0	7612	13.85	0
0	7625	13.9	1
0	7626	13.9	2
0	7627	13.9	1
0	7628	13.9	0
0	7630	13.9	1
0	7631	13.9	2
0	7632	13.9	1
0	7633	13.9	0
0	7655	13.95	1
0	7656	13.95	2
0	7657	13.95	1
0	7658	13.95	0
0	7685	14	1
0	7686	14	2
0	7687	14	1
0	7688	14	0
0	7690	14	1
0	7691	14	2
0	7692	14	1
0	7693	14	0
0	7712	14.05	1
0	7713	14.05	2
0	7714	14.05	1
0	7715	14.05	0
0	7732	14.1	1
0	7733	14.1	2
0	7734	14.1	1
0	7735	14.1	0
0	7737	14.1	1
0	7738	14.1	2
0	7739	14.1	1
0	7740	14.1	0
0	7777	14.15	1
0	7778	14.15	2
0	7779	14.15	1
0	7780	14.15	0
0	7793	14.2	1
0	7794	14.2	2
0	7795	14.2	1
0	7796	14.2	0
0	7798	14.2	1
0	7799	14.2	2
0	7800	14.2	1
0	7801	14.2	0
0	7820	14.25	1
0	7821	14.25	2
0	7822	14.25	1
0	7823	14.25	0
0	7836	14.3	1
0	7837	14.3	2
0	7838	14.3	1
0	7839	14.3	0
0	7841	14.3	1
0	7842	14.3	2
0	7843	14.3	1
0	7844	14.3	0
0	7863	14.35	1
0	7864	14.35	2
0	7865	14.35	1
0	7866	14.35	0
0	7879	14.4	1
0	7880	14.4	2
0	7881	14.4	1
0	7882	14.4	0
0	7884	14.4	1
0	7885	14.4	2
0	7886	14.4	1
0	7887	14.4	0
0	7906	14.45	1
0	7907	14.45	2
0	7908	14.45	1
0	7909	14.45	0
0	7922	14.5	1
0	7923	14.5	2
0	7924	14.5	1
0	7925	14.5	0
0	7927	14.5	1
0	7928	14.5	2
0	7929	14.5	1
0	7930	14.5	0
0	7972	14.55	1
0	7973	14.55	2
0	7974	14.55	1
0	7975	14.55	0
0	7988	14.6	1
0	7989	14.6	2
0	7990	14.6	1
0	7991	14.6	0
0	7993	14.6	1
0	7994	14.6	2
0	7995	14.6	1
0	7996	14.6	0
0	8015	14.65	1
0	8016	14.65	2
0	8017	14.65	1
0	8018	14.65	0
0	8045	14.7	1
0	8046	14.7	2
0	8047	14.7	1
0	8048	14.7	0
0	8050	14.7	1
0	8051	14.7	2
0	8052	14.7	1
0	8053	14.7	0
0	8072	14.75	1
0	8073	14.75	2
0	8074	14.75	1
0	8075	14.75	0
0	8088	14.8	1
0	8089	14.8	2
0	8090	14.8	1
0	8091	14.8	0
0	8093	14.8	1
0	8094	14.8	2
0	8095	14.8	1
0	8096	14.8	0
0	8115	14.85	1
0	8116	14.85	2
0	8117	14.85	1
0	8118	14.85	0
0	8131	14.9	1
0	8132	14.9	2
0	8133	14.9	1
0	8134	14.9	0
0	8136	14.9	1
0	8137	14.9	2
0	8138	14.9	1
0	8139	14.9	0
0	8158	14.95	1
0	8159	14.95	2
0	8160	14.95	1
0	8161	14.95	0
0	8175	15	1
0	8176	15	2
0	8177	15	1
0	8178	15	0
0	8180	15	1
0	8181	15	2
0	8182	15	1
0	8183	15	0
0	8202	15.05	1
0	8203	15.05	2
0	8204	15.05	1
0	8205	15.05	0
0	8248	15.1	1
0	8249	15.1	2
0	8250	15.1	1
0	8251	15.1	0
0	8253	15.1	1
0	8254	15.1	2
0	8255	15.1	1
0	8256	15.1	0
0	8279	15.15	1
0	8280	15.15	2
0	8281	15.15	1
0	8282	15.15	0
0	8295	15.2	1
0	8296	15.2	2
0	8297	15.2	1
0	8298	15.2	0
0	8300	15.2	1
0	8301	15.2	2
0	8302	15.2	1
0	8303	15.2	0
0	8336	15.25	1
0	8337	15.25	2
0	8338	15.25	1
0	8339	15.25	0
0	8352	15.3	1
0	8353	15.3	2
0	8354	15.3	1
0	8355	15.3	0
0	8357	15.3	1
0	8358	15.3	2
0	8359	15.3	1
0	8360	15.3	0
0	8379	15.35	1
0	8380	15.35	2
0	8381	15.35	1
0	8382	15.35	0
0	8433	15.4	1
0	8434	15.4	2
0	8435	15.4	1
0	8436	15.4	0
0	8438	15.4	1
0	8439	15.4	2
0	8440	15.4	1
0	8441	15.4	0
0	8460	15.45	1
0	8461	15.45	2
0	8462	15.45	1
0	8463	15.45	0
0	8476	15.5	1
0	8477	15.5	2
0	8478	15.5	1
0	8479	15.5	0
0	8481	15.5	1
0	8482	15.5	2
0	8483	15.5	1
0	8484	15.5	0
0	8517	15.55	1
0	8518	15.55	2
0	8519	15.55	1
0	8520	15.55	0
0	8533	15.6	1
0	8534	15.6	2
0	8535	15.6	1
0	8536	15.6	0
0	8538	15.6	1
0	8539	15.6	2
0	8540	15.6	1
0	8541	15.6	0
0	8586	15.65	1
0	8587	15.65	2
0	8588	15.65	1
0	8589	15.65	0
0	8602	15.7	1
0	8603	15.7	2
0	8604	15.7	1
0	8605	15.7	0
0	8607	15.7	1
0	8608	15.7	2
0	8609	15.7	1
0	8610	15.7	0
0	8629	15.75	1
0	8630	15.75	2
0	8631	15.75	1
0	8632	15.75	0
0	8659	15.8	1
0	8660	15.8	2
0	8661	15.8	1
0	8662	15.8	0
0	8664	15.8	1
0	8665	15.8	2
0	8666	15.8	1
0	8667	15.8	0
0	8686	15.85	1
0	8687	15.85	2
0	8688	15.85	1
0	8689	15.85	0
0	8702	15.9	1
0	8703	15.9	2
0	8704	15.9	1
0	8705	15.9	0
0	8707	15.9	1
0	8708	15.9	2
0	8709	15.9	1
0	8710	15.9	0
0	8743	15.95	1
0	8744	15.95	2
0	8745	15.95	1
0	8746	15.95	0
0	8759	16	1
0	8760	16	2
0	8761	16	1
0	8762	16	0
0	8764	16	1
0	8765	16	2
0	8766	16	1
0	8767	16	0
0	8786	16.05	1
0	8787	16.05	2
0	8788	16.05	1
0	8789	16.05	0
0	8820	16.1	1
0	8821	16.1	2
0	8822	16.1	1
0	8823	16.1	0
0	8825	16.1	1
0	8826	16.1	2
0	8827	16.1	1
0	8828	16.1	0
0	8851	16.15	1
0	8852	16.15	2
0	8853	16.15	1
0	8854	16.15	0
0	8893	16.2	1
0	8894	16.2	2
0	8895	16.2	1
0	8896	16.2	0
0	8898	16.2	1
0	8899	16.2	2
0	8900	16.2	1
0	8901	16.2	0
0	8920	16.25	1
0	8921	16.25	2
0	8922	16.25	1
0	8923	16.25	0
0	8936	16.3	1
0	8937	16.3	2
0	8938	16.3	1
0	8939	16.3	0
0	8941	16.3	1
0	8942	16.3	2
0	8943	16.3	1
0	8944	16.3	0
0	8966	16.35	1
0	8967	16.35	2
0	8968	16.35	1
0	8969	16.35	0
0	8982	16.4	1
0	8983	16.4	2
0	8984	16.4	1
0	8985	16.4	0
0	8987	16.4	1
0	8988	16.4	2
0	8989	16.4	1
0	8990	16.4	0
0	9009	16.45	1
0	9010	16.45	2
0	9011	16.45	1
0	9012	16.45	0
0	9052	16.5	1
0	9053	16.5	2
0	9054	16.5	1
0	9055	16.5	0
0	9057	16.5	1
0	9058	16.5	2
0	9059	16.5	1
0	9060	16.5	0
0	9079	16.55	1
0	9080	16.55	2
0	9081	16.55	1
0	9082	16.55	0
0	9095	16.6	1
0	9096	16.6	2
0	9097	16.6	1
0	9098	16.6	0
0	9100	16.6	1
0	9101	16.6	2
0	9102	16.6	1
0	9103	16.6	0
0	9136	16.65	1
0	9137	16.65	2
0	9138	16.65	1
0	9139	16.65	0
0	9152	16.7	1
0	9153	16.7	2
0	9154	16.7	1
0	9155	16.7	0
0	9157	16.7	1
0	9158	16.7	2
0	9159	16.7	1
0	9160	16.7	0
0	9179	16.75	1
0	9180	16.75	2
0	9181	16.75	1
0	9182	16.75	0
0	9195	16.8	1
0	9196	16.8	2
0	9197	16.8	1
0	9198	16.8	0
0	9200	16.8	1
0	9201	16.8	2
0	9202	16.8	1
0	9203	16.8	0
0	9222	16.85	1
0	9223	16.85	2
0	9224	16.85	1
0	9225	16.85	0
0	9238	16.9	1
0	9239	16.9	2
0	9240	16.9	1
0	9241	16.9	0
0	9243	16.9	1
0	9244	16.9	2
0	9245	16.9	1
0	9246	16.9	0
0	9265	16.95	1
0	9266	16.95	2
0	9267	16.95	1
0	9268	16.95	0
0	9283	17	1
0	9284	17	2
0	9285	17	1
0	9286	17	0
0	9288	17	1
0	9289	17	2
0	9290	17	1
0	9291	17	0
0	9324	17.05	1
0	9325	17.05	2
0	9326	17.05	1
0	9327	17.05	0
0	9344	17.1	1
0	9345	17.1	2
0	9346	17.1	1
0	9347	17.1	0
0	9349	17.1	1
0	9350	17.1	2
0	9351	17.1	1
0	9352	17.1	0
0	9375	17.15	1
0	9376	17.15	2
0	9377	17.15	1
0	9378	17.15	0
0	9405	17.2	1
0	9406	17.2	2
0	9407	17.2	1
0	9408	17.2	0
0	9410	17.2	1
0	9411	17.2	2
0	9412	17.2	1
0	9413	17.2	0
0	9432	17.25	1
0	9433	17.25	2
0	9434	17.25	1
0	9435	17.25	0
0	9448	17.3	1
0	9449	17.3	2
0	9450	17.3	1
0	9451	17.3	0
0	9453	17.3	1
0	9454	17.3	2
0	9455	17.3	1
0	9456	17.3	0
0	9475	17.35	1
0	9476	17.35	2
0	9477	17.35	1
0	9478	17.35	0
0	9491	17.4	1
0	9492	17.4	2
0	9493	17.4	1
0	9494	17.4	0
0	9496	17.4	1
0	9497	17.4	2
0	9498	17.4	1
0	9499	17.4	0
0	9518	17.45	1
0	9519	17.45	2
0	9520	17.45	1
0	9521	17.45	0
0	9534	17.5	1
0	9535	17.5	2
0	9536	17.5	1
0	9537	17.5	0
0	9539	17.5	1
0	9540	17.5	2
0	9541	17.5	1
0	9542	17.5	0
0	9561	17.55	1
0	9562	17.55	2
0	9563	17.55	1
0	9564	17.55	0
0	9594	17.6	1
0	9595	17.6	2
0	9596	17.6	1
0	9597	17.6	0
0	9599	17.6	1
0	9600	17.6	2
0	9601	17.6	1
0	9602	17.6	0
0	9621	17.65	1
0	9622	17.65	2
0	9623	17.65	1
0	9624	17.65	0
0	9637	17.7	1
0	9638	17.7	2
0	9639	17.7	1
0	9640	17.7	0
0	9642	17.7	1
0	9643	17.7	2
0	9644	17.7	1
0	9645	17.7	0
0	9674	17.75	1
0	9675	17.75	2
0	9676	17.75	1
0	9677	17.75	0
0	9693	17.8	1
0	9694	17.8	2
0	9695	17.8	1
0	9696	17.8	0
0	9698	17.8	1
0	9699	17.8	2
0	9700	17.8	1
0	9701	17.8	0
0	9720	17.85	1
0	9721	17.85	2
0	9722	17.85	1
0	9723	17.85	0
0	9736	17.9	1
0	9737	17.9	2
0	9738	17.9	1
0	9739	17.9	0
0	9741	17.9	1
0	9742	17.9	2
0	9743	17.9	1
0	9744	17.9	0
0	9777	17.95	1
0	9778	17.95	2
0	9779	17.95	1
0	9780	17.95	0
0	9793	18	1
0	9794	18	2
0	9795	18	1
0	9796	18	0
0	9798	18	1
0	9799	18	2
0	9800	18	1
0	9801	18	0
0	9820	18.05	1
0	9821	18.05	2
0	9822	18.05	1
0	9823	18.05	0
0	9840	18.1	1
0	9841	18.1	2
0	9842	18.1	1
0	9843	18.1	0
0	9845	18.1	1
0	9846	18.1	2
0	9847	18.1	1
0	9848	18.1	0
0	9906	18.15	1
0	9907	18.15	2
0	9908	18.15	1
0	9909	18.15	0
0	9922	18.2	1
0	9923	18.2	2
0	9924	18.2	1
0	9925	18.2	0
0	9927	18.2	1
0	9928	18.2	2
0	9929	18.2	1
0	9930	18.2	0
0	9949	18.25	1
0	9950	18.25	2
0	9951	18.25	1
0	9952	18.25	0
0	9979	18.3	1
0	9980	18.3	2
0	9981	18.3	1
0	9982	18.3	0
0	9984	18.3	1
0	9985	18.3	2
0	9986	18.3	1
0	9987	18.3	0
0	10009	18.35	1
0	10010	18.35	2
0	10011	18.35	1
0	10012	18.35	0
0	10025	18.4	1
0	10026	18.4	2
0	10027	18.4	1
0	10028	18.4	0
0	10030	18.4	1
0	10031	18.4	2
0	10032	18.4	1
0	10033	18.4	0
0	10052	18.45	1
0	10053	18.45	2
0	10054	18.45	1
0	10055	18.45	0
0	10068	18.5	1
0	10069	18.5	2
0	10070	18.5	1
0	10071	18.5	0
0	10073	18.5	1
0	10074	18.5	2
0	10075	18.5	1
0	10076	18.5	0
0	10095	18.55	1
0	10096	18.55	2
0	10097	18.55	1
0	10098	18.55	0
0	10111	18.6	1
0	10112	18.6	2
0	10113	18.6	1
0	10114	18.6	0
0	10116	18.6	1
0	10117	18.6	2
0	10118	18.6	1
0	10119	18.6	0
0	10138	18.65	1
0	10139	18.65	2
0	10140	18.65	1
0	10141	18.65	0
0	10180	18.7	1
0	10181	18.7	2
0	10182	18.7	1
0	10183	18.7	0
0	10185	18.7	1
0	10186	18.7	2
0	10187	18.7	1
0	10188	18.7	0
0	10207	18.75	1
0	10208	18.75	2
0	10209	18.75	1
0	10210	18.75	0
0	10223	18.8	1
0	10224	18.8	2
0	10225	18.8	1
0	10226	18.8	0
0	10228	18.8	1
0	10229	18.8	2
0	10230	18.8	1
0	10231	18.8	0
0	10264	18.85	1
0	10265	18.85	2
0	10266	18.85	1
0	10267	18.85	0
0	10280	18.9	1
0	10281	18.9	2
0	10282	18.9	1
0	10283	18.9	0
0	10285	18.9	1
0	10286	18.9	2
0	10287	18.9	1
0	10288	18.9	0
0	10307	18.95	1
0	10308	18.95	2
0	10309	18.95	1
0	10310	18.95	0
0	10323	19	1
0	10324	19	2
0	10325	19	1
0	10326	19	0
0	10328	19	1
0	10329	19	2
0	10330	19	1
0	10331	19	0
0	10350	19.05	1
0	10351	19.05	2
0	10352	19.05	1
0	10353	19.05	0
0	10370	19.1	1
0	10371	19.1	2
0	10372	19.1	1
0	10373	19.1	0
0	10375	19.1	1
0	10376	19.1	2
0	10377	19.1	1
0	10378	19.1	0
0	10401	19.15	1
0	10402	19.15	2
0	10403	19.15	1
0	10404	19.15	0
0	10417	19.2	1
0	10418	19.2	2
0	10419	19.2	1
0	10420	19.2	0
0	10422	19.2	1
0	10423	19.2	2
0	10424	19.2	1
0	10425	19.2	0
0	10470	19.25	1
0	10471	19.25	2
0	10472	19.25	1
0	10473	19.25	0
0	10486	19.3	1
0	10487	19.3	2
0	10488	19.3	1
0	10489	19.3	0
0	10491	19.3	1
0	10492	19.3	2
0	10493	19.3	1
0	10494	19.3	0
0	10513	19.35	1
0	10514	19.35	2
0	10515	19.35	1
0	10516	19.35	0
0	10543	19.4	1
0	10544	19.4	2
0	10545	19.4	1
0	10546	19.4	0
0	10548	19.4	1
0	10549	19.4	2
0	10550	19.4	1
0	10551	19.4	0
0	10570	19.45	1
0	10571	19.45	2
0	10572	19.45	1
0	10573	19.45	0
0	10586	19.5	1
0	10587	19.5	2
0	10588	19.5	1
0	10589	19.5	0
0	10591	19.5	1
0	10592	19.5	2
0	10593	19.5	1
0	10594	19.5	0
0	10616	19.55	1
0	10617	19.55	2
0	10618	19.55	1
0	10619	19.55	0
0	10632	19.6	1
0	10633	19.6	2
0	10634	19.6	1
0	10635	19.6	0
0	10637	19.6	1
0	10638	19.6	2
0	10639	19.6	1
0	10640	19.6	0
0	10659	19.65	1
0	10660	19.65	2
0	10661	19.65	1
0	10662	19.65	0
0	10675	19.7	1
0	10676	19.7	2
0	10677	19.7	1
0	10678	19.7	0
0	10680	19.7	1
0	10681	19.7	2
0	10682	19.7	1
0	10683	19.7	0
0	10702	19.75	1
0	10703	19.75	2
0	10704	19.75	1
0	10705	19.75	0
0	10732	19.8	1
0	10733	19.8	2
0	10734	19.8	1
0	10735	19.8	0
0	10737	19.8	1
0	10738	19.8	2
0	10739	19.8	1
0	10740	19.8	0
0	10759	19.85	1
0	10760	19.85	2
0	10761	19.85	1
0	10762	19.85	0
0	10775	19.9	1
0	10776	19.9	2
0	10777	19.9	1
0	10778	19.9	0
0	10780	19.9	1
0	10781	19.9	2
0	10782	19.9	1
0	10783	19.9	0
0	10826	19.95	1
0	10827	19.95	2
0	10828	19.95	1
0	10829	19.95	0
0	10843	20	1
0	10844	20	2
0	10845	20	1
0	10846	20	0
0	10848	20	1
0	10849	20	2
0	10850	20	1
0	10851	20	0
0	10870	20.05	1
0	10871	20.05	2
0	10872	20.05	1
0	10873	20.05	0
0	10904	20.1	1
0	10905	20.1	2
0	10906	20.1	1
0	10907	20.1	0
0	10909	20.1	1
0	10910	20.1	2
0	10911	20.1	1
0	10912	20.1	0
0	10935	20.15	1
0	10936	20.15	2
0	10937	20.15	1
0	10938	20.15	0
0	10951	20.2	1
0	10952	20.2	2
0	10953	20.2	1
0	10954	20.2	0
0	10956	20.2	1
0	10957	20.2	2
0	10958	20.2	1
0	10959	20.2	0
0	10978	20.25	1
0	10979	20.25	2
0	10980	20.25	1
0	10981	20.25	0
0	10994	20.3	1
0	10995	20.3	2
0	10996	20.3	1
0	10997	20.3	0
0	10999	20.3	1
0	11000	20.3	2
0	11001	20.3	1
0	11002	20.3	0
0	11047	20.35	1
0	11048	20.35	2
0	11049	20.35	1
0	11050	20.35	0
0	11063	20.4	1
0	11064	20.4	2
0	11065	20.4	1
0	11066	20.4	0
0	11068	20.4	1
0	11069	20.4	2
0	11070	20.4	1
0	11071	20.4	0
0	11090	20.45	1
0	11091	20.45	2
0	11092	20.45	1
0	11093	20.45	0
0	11123	20.5	1
0	11124	20.5	2
0	11125	20.5	1
0	11126	20.5	0
0	11128	20.5	1
0	11129	20.5	2
0	11130	20.5	1
0	11131	20.5	0
0	11150	20.55	1
0	11151	20.55	2
0	11152	20.55	1
0	11153	20.55	0
0	11166	20.6	1
0	11167	20.6	2
0	11168	20.6	1
0	11169	20.6	0
0	11171	20.6	1
0	11172	20.6	2
0	11173	20.6	1
0	11174	20.6	0
0	11193	20.65	1
0	11194	20.65	2
0	11195	20.65	1
0	11196	20.65	0
0	11209	20.7	1
0	11210	20.7	2
0	11211	20.7	1
0	11212	20.7	0
0	11214	20.7	1
0	11215	20.7	2
0	11216	20.7	1
0	11217	20.7	0
0	11236	20.75	1
0	11237	20.75	2
0	11238	20.75	1
0	11239	20.75	0
0	11252	20.8	1
0	11253	20.8	2
0	11254	20.8	1
0	11255	20.8	0
0	11257	20.8	1
0	11258	20.8	2
0	11259	20.8	1
0	11260	20.8	0
0	11279	20.85	1
0	11280	20.85	2
0	11281	20.85	1
0	11282	20.85	0
0	11309	20.9	1
0	11310	20.9	2
0	11311	20.9	1
0	11312	20.9	0
0	11314	20.9	1
0	11315	20.9	2
0	11316	20.9	1
0	11317	20.9	0
0	11336	20.95	1
0	11337	20.95	2
0	11338	20.95	1
0	11339	20.95	0
0	11352	21	1
0	11353	21	2
0	11354	21	1
0	11355	21	0
0	11357	21	1
0	11358	21	2
0	11359	21	1
0	11360	21	0
0	11393	21.05	1
0	11394	21.05	2
0	11395	21.05	1
0	11396	21.05	0
0	11413	21.1	1
0	11414	21.1	2
0	11415	21.1	1
0	11416	21.1	0
0	11418	21.1	1
0	11419	21.1	2
0	11420	21.1	1
0	11421	21.1	0
0	11444	21.15	1
0	11445	21.15	2
0	11446	21.15	1
0	11447	21.15	0
0	11460	21.2	1
0	11461	21.2	2
0	11462	21.2	1
0	11463	21.2	0
0	11465	21.2	1
0	11466	21.2	2
0	11467	21.2	1
0	11468	21.2	0
0	11487	21.25	1
0	11488	21.25	2
0	11489	21.25	1
0	11490	21.25	0
0	11503	21.3	1
0	11504	21.3	2
0	11505	21.3	1
0	11506	21.3	0
0	11508	21.3	1
0	11509	21.3	2
0	11510	21.3	1
0	11511	21.3	0
0	11530	21.35	1
0	11531	21.35	2
0	11532	21.35	1
0	11533	21.35	0
0	11546	21.4	1
0	11547	21.4	2
0	11548	21.4	1
0	11549	21.4	0
0	11551	21.4	1
0	11552	21.4	2
0	11553	21.4	1
0	11554	21.4	0
0	11599	21.45	1
0	11600	21.45	2
0	11601	21.45	1
0	11602	21.45	0
0	11616	21.5	1
0	11617	21.5	2
0	11618	21.5	1
0	11619	21.5	0
0	11621	21.5	1
0	11622	21.5	2
0	11623	21.5	1
0	11624	21.5	0
0	11643	21.55	1
0	11644	21.55	2
0	11645	21.55	1
0	11646	21.55	0
0	11673	21.6	1
0	11674	21.6	1
0	11675	21.6	0
0	11676	21.6	0
0	11678	21.6	1
0	11679	21.6	1
0	11680	21.6	0
0	11681	21.6	0
0	11698	21.65	1
0	11699	21.65	1
0	11700	21.65	0
0	11701	21.65	0
0	11714	21.7	1
0	11715	21.7	1
0	11716	21.7	0
0	11717	21.7	0
0	11719	21.7	1
0	11720	21.7	1
0	11721	21.7	0
0	11722	21.7	0
0	11739	21.75	1
0	11740	21.75	1
0	11741	21.75	0
0	11742	21.75	0
0	11755	21.8	1
0	11756	21.8	1
0	11757	21.8	0
0	11758	21.8	0
0	11760	21.8	1
0	11761	21.8	1
0	11762	21.8	0
0	11763	21.8	0
0	11780	21.85	1
0	11781	21.85	1
0	11782	21.85	0
0	11783	21.85	0
0	11796	21.9	1
0	11797	21.9	1
0	11798	21.9	0
0	11799	21.9	0
0	11801	21.9	1
0	11802	21.9	1
0	11803	21.9	0
0	11804	21.9	0
0	11821	21.95	1
0	11822	21.95	1
0	11823	21.95	0
0	11824	21.95	0
0	11853	22	1
0	11854	22	1
0	11855	22	0
0	11856	22	0
0	11858	22	1
0	11859	22	1
0	11860	22	0
0	11861	22	0
0	11878	22.05	1
0	11879	22.05	1
0	11880	22.05	0
0	11881	22.05	0
0	11898	22.1	1
0	11899	22.1	1
0	11900	22.1	0
0	11901	22.1	0
0	11903	22.1	1
0	11904	22.1	1
0	11905	22.1	0
0	11906	22.1	0
0	11941	22.15	1
0	11942	22.15	1
0	11943	22.15	0
0	11944	22.15	0
0	11957	22.2	1
0	11958	22.2	1
0	11959	22.2	0
0	11960	22.2	0
0	11962	22.2	1
0	11963	22.2	1
0	11964	22.2	0
0	11965	22.2	0
0	11982	22.25	1
0	11983	22.25	1
0	11984	22.25	0
0	11985	22.25	0
0	11998	22.3	1
0	11999	22.3	1
0	12000	22.3	0
0	12001	22.3	0
0	12003	22.3	1
0	12004	22.3	1
0	12005	22.3	0
0	12006	22.3	0
0	12023	22.35	1
0	12024	22.35	1
0	12025	22.35	0
0	12026	22.35	0
0	12039	22.4	1
0	12040	22.4	1
0	12041	22.4	0
0	12042	22.4	0
0	12044	22.4	1
0	12045	22.4	1
0	12046	22.4	0
0	12047	22.4	0
0	12064	22.45	1
0	12065	22.45	1
0	12066	22.45	0
0	12067	22.45	0
0	12080	22.5	1
0	12081	22.5	1
0	12082	22.5	0
0	12083	22.5	0
0	12085	22.5	1
0	12086	22.5	1
0	12087	22.5	0
0	12088	22.5	0
0	12115	22.55	1
0	12116	22.55	1
0	12117	22.55	0
0	12118	22.55	0
0	12131	22.6	1
0	12132	22.6	1
0	12133	22.6	0
0	12134	22.6	0
0	12136	22.6	1
0	12137	22.6	1
0	12138	22.6	0
0	12139	22.6	0
0	12156	22.65	1
0	12157	22.65	1
0	12158	22.65	0
0	12159	22.65	0
0	12186	22.7	1
0	12187	22.7	1
0	12188	22.7	0
0	12189	22.7	0
0	12191	22.7	1
0	12192	22.7	1
0	12193	22.7	0
0	12194	22.7	0
0	12211	22.75	1
0	12212	22.75	1
0	12213	22.75	0
0	12214	22.75	0
0	12227	22.8	1
0	12228	22.8	1
0	12229	22.8	0
0	12230	22.8	0
0	12232	22.8	1
0	12233	22.8	1
0	12234	22.8	0
0	12235	22.8	0
0	12252	22.85	1
0	12253	22.85	1
0	12254	22.85	0
0	12255	22.85	0
0	12268	22.9	1
0	12269	22.9	1
0	12270	22.9	0
0	12271	22.9	0
0	12273	22.9	1
0	12274	22.9	1
0	12275	22.9	0
0	12276	22.9	0
0	12293	22.95	1
0	12294	22.95	1
0	12295	22.95	0
0	12296	22.95	0
0	12309	23	1
0	12310	23	1
0	12311	23	0
0	12312	23	0
0	12314	23	1
0	12315	23	1
0	12316	23	0
0	12317	23	0
0	12334	23.05	1
0	12335	23.05	1
0	12336	23.05	0
0	12337	23.05	0
0	12380	23.1	1
0	12381	23.1	1
0	12382	23.1	0
0	12383	23.1	0
0	12385	23.1	1
0	12386	23.1	1
0	12387	23.1	0
0	12388	23.1	0
0	12409	23.15	1
0	12410	23.15	1
0	12411	23.15	0
0	12412	23.15	0
0	12425	23.2	1
0	12426	23.2	1
0	12427	23.2	0
0	12428	23.2	0
0	12430	23.2	1
0	12431	23.2	1
0	12432	23.2	0
0	12433	23.2	0
0	12464	23.25	1
0	12465	23.25	1
0	12466	23.25	0
0	12467	23.25	0
0	12480	23.3	1
0	12481	23.3	1
0	12482	23.3	0
0	12483	23.3	0
0	12485	23.3	1
0	12486	23.3	1
0	12487	23.3	0
0	12488	23.3	0
0	12505	23.35	1
0	12506	23.35	1
0	12507	23.35	0
0	12508	23.35	0
0	12521	23.4	1
0	12522	23.4	1
0	12523	23.4	0
0	12524	23.4	0
0	12526	23.4	1
0	12527	23.4	1
0	12528	23.4	0
0	12529	23.4	0
0	12546	23.45	1
0	12547	23.45	1
0	12548	23.45	0
0	12549	23.45	0
0	12562	23.5	1
0	12563	23.5	1
0	12564	23.5	0
0	12565	23.5	0
0	12567	23.5	1
0	12568	23.5	1
0	12569	23.5	0
0	12570	23.5	0
0	12587	23.55	1
0	12588	23.55	1
0	12589	23.55	0
0	12590	23.55	0
0	12603	23.6	1
0	12604	23.6	1
0	12605	23.6	0
0	12606	23.6	0
0	12608	23.6	1
0	12609	23.6	1
0	12610	23.6	0
0	12611	23.6	0
0	12645	23.65	1
0	12646	23.65	1
0	12647	23.65	0
0	12648	23.65	0
0	12661	23.7	1
0	12662	23.7	1
0	12663	23.7	0
0	12664	23.7	0
0	12666	23.7	1
0	12667	23.7	1
0	12668	23.7	0
0	12669	23.7	0
0	12686	23.75	1
0	12687	23.75	1
0	12688	23.75	0
0	12689	23.75	0
0	12716	23.8	1
0	12717	23.8	1
0	12718	23.8	0
0	12719	23.8	0
0	12721	23.8	1
0	12722	23.8	1
0	12723	23.8	0
0	12724	23.8	0
0	12741	23.85	1
0	12742	23.85	1
0	12743	23.85	0
0	12744	23.85	0
0	12757	23.9	1
0	12758	23.9	1
0	12759	23.9	0
0	12760	23.9	0
0	12762	23.9	1
0	12763	23.9	1
0	12764	23.9	0
0	12765	23.9	0
0	12782	23.95	1
0	12783	23.95	1
0	12784	23.95	0
0	12785	23.95	0
0	12798	24	1
0	12799	24	1
0	12800	24	0
0	12801	24	0
0	12803	24	1
0	12804	24	1
0	12805	24	0
0	12806	24	0
0	12823	24.05	1
0	12824	24.05	1
0	12825	24.05	0
0	12826	24.05	0
0	12843	24.1	1
0	12844	24.1	1
0	12845	24.1	0
0	12846	24.1	0
0	12848	24.1	1
0	12849	24.1	1
0	12850	24.1	0
0	12851	24.1	0
0	12872	24.15	1
0	12873	24.15	1
0	12874	24.15	0
0	12875	24.15	0
0	12891	24.2	1
0	12892	24.2	1
0	12893	24.2	0
0	12894	24.2	0
0	12896	24.2	1
0	12897	24.2	1
0	12898	24.2	0
0	12899	24.2	0
0	12916	24.25	1
0	12917	24.25	1
0	12918	24.25	0
0	12919	24.25	0
0	12932	24.3	1
0	12933	24.3	1
0	12934	24.3	0
0	12935	24.3	0
0	12937	24.3	1
0	12938	24.3	1
0	12939	24.3	0
0	12940	24.3	0
0	12957	24.35	1
0	12958	24.35	1
0	12959	24.35	0
0	12960	24.35	0
0	12973	24.4	1
0	12974	24.4	1
0	12975	24.4	0
0	12976	24.4	0
0	12978	24.4	1
0	12979	24.4	1
0	12980	24.4	0
0	12981	24.4	0
0	12998	24.45	1
0	12999	24.45	1
0	13000	24.45	0
0	13001	24.45	0
0	13014	24.5	1
0	13015	24.5	1
0	13016	24.5	0
0	13017	24.5	0
0	13019	24.5	1
0	13020	24.5	1
0	13021	24.5	0
0	13022	24.5	0
0	13039	24.55	1
0	13040	24.55	1
0	13041	24.55	0
0	13042	24.55	0
0	13055	24.6	1
0	13056	24.6	1
0	13057	24.6	0
0	13058	24.6	0
0	13060	24.6	1
0	13061	24.6	1
0	13062	24.6	0
0	13063	24.6	0
0	13080	24.65	1
0	13081	24.65	1
0	13082	24.65	0
0	13083	24.65	0
0	13096	24.7	1
0	13097	24.7	1
0	13098	24.7	0
0	13099	24.7	0
0	13101	24.7	1
0	13102	24.7	1
0	13103	24.7	0
0	13104	24.7	0
0	13121	24.75	1
0	13122	24.75	1
0	13123	24.75	0
0	13124	24.75	0
0	13137	24.8	1
0	13138	24.8	1
0	13139	24.8	0
0	13140	24.8	0
0	13142	24.8	1
0	13143	24.8	1
0	13144	24.8	0
0	13145	24.8	0
0	13162	24.85	1
0	13163	24.85	1
0	13164	24.85	0
0	13165	24.85	0
0	13178	24.9	1
0	13179	24.9	1
0	13180	24.9	0
0	13181	24.9	0
0	13183	24.9	1
0	13184	24.9	1
0	13185	24.9	0
0	13186	24.9	0
0	13203	24.95	1
0	13204	24.95	1
0	13205	24.95	0
0	13206	24.95	0
0	13220	25	1
0	13221	25	1
0	13222	25	0
0	13223	25	0
0	13225	25	1
0	13226	25	1
0	13227	25	0
0	13228	25	0
0	13245	25.05	1
0	13246	25.05	1
0	13247	25.05	0
0	13248	25.05	0
0	13265	25.1	1
0	13266	25.1	1
0	13267	25.1	0
0	13268	25.1	0
0	13270	25.1	1
0	13271	25.1	1
0	13272	25.1	0
0	13273	25.1	0
0	13294	25.15	1
0	13295	25.15	1
0	13296	25.15	0
0	13297	25.15	0
0	13310	25.2	1
0	13311	25.2	1
0	13312	25.2	0
0	13313	25.2	0
0	13315	25.2	1
0	13316	25.2	1
0	13317	25.2	0
0	13318	25.2	0
0	13335	25.25	1
0	13336	25.25	1
0	13337	25.25	0
0	13338	25.25	0
0	13351	25.3	1
0	13352	25.3	1
0	13353	25.3	0
0	13354	25.3	0
0	13356	25.3	1
0	13357	25.3	1
0	13358	25.3	0
0	13359	25.3	0
0	13376	25.35	1
0	13377	25.35	1
0	13378	25.35	0
0	13379	25.35	0
0	13402	25.4	1
0	13403	25.4	1
0	13404	25.4	0
0	13405	25.4	0
0	13407	25.4	1
0	13408	25.4	1
0	13409	25.4	0
0	13410	25.4	0
0	13427	25.45	1
0	13428	25.45	1
0	13429	25.45	0
0	13430	25.45	0
0	13443	25.5	1
0	13444	25.5	1
0	13445	25.5	0
0	13446	25.5	0
0	13448	25.5	1
0	13449	25.5	1
0	13450	25.5	0
0	13451	25.5	0
0	13508	25.55	1
0	13509	25.55	1
0	13510	25.55	0
0	13511	25.55	0
0	13534	25.6	1
0	13535	25.6	1
0	13536	25.6	0
0	13537	25.6	0
0	13539	25.6	1
0	13540	25.6	1
0	13541	25.6	0
0	13542	25.6	0
0	13559	25.65	1
0	13560	25.65	1
0	13561	25.65	0
0	13562	25.65	0
0	13575	25.7	1
0	13576	25.7	1
0	13577	25.7	0
0	13578	25.7	0
0	13580	25.7	1
0	13581	25.7	1
0	13582	25.7	0
0	13583	25.7	0
0	13600	25.75	1
0	13601	25.75	1
0	13602	25.75	0
0	13603	25.75	0
0	13616	25.8	1
0	13617	25.8	1
0	13618	25.8	0
0	13619	25.8	0
0	13621	25.8	1
0	13622	25.8	1
0	13623	25.8	0
0	13624	25.8	0
0	13641	25.85	1
0	13642	25.85	1
0	13643	25.85	0
0	13644	25.85	0
0	13657	25.9	1
0	13658	25.9	1
0	13659	25.9	0
0	13660	25.9	0
0	13662	25.9	1
0	13663	25.9	1
0	13664	25.9	0
0	13665	25.9	0
0	13696	25.95	1
0	13697	25.95	1
0	13698	25.95	0
0	13699	25.95	0
0	13712	26	1
0	13713	26	1
0	13714	26	0
0	13715	26	0
0	13717	26	1
0	13718	26	1
0	13719	26	0
0	13720	26	0
0	13737	26.05	1
0	13738	26.05	1
0	13739	26.05	0
0	13740	26.05	0
0	13771	26.1	1
0	13772	26.1	1
0	13773	26.1	0
0	13774	26.1	0
0	13776	26.1	1
0	13777	26.1	1
0	13778	26.1	0
0	13779	26.1	0
0	13800	26.15	1
0	13801	26.15	1
0	13802	26.15	0
0	13803	26.15	0
0	13816	26.2	1
0	13817	26.2	1
0	13818	26.2	0
0	13819	26.2	0
0	13821	26.2	1
0	13822	26.2	1
0	13823	26.2	0
0	13824	26.2	0
0	13841	26.25	1
0	13842	26.25	1
0	13843	26.25	0
0	13844	26.25	0
0	13857	26.3	1
0	13858	26.3	1
0	13859	26.3	0
0	13860	26.3	0
0	13862	26.3	1
0	13863	26.3	1
0	13864	26.3	0
0	13865	26.3	0
0	13882	26.35	1
0	13883	26.35	1
0	13884	26.35	0
0	13885	26.35	0
0	13898	26.4	1
0	13899	26.4	1
0	13900	26.4	0
0	13901	26.4	0
0	13903	26.4	1
0	13904	26.4	1
0	13905	26.4	0
0	13906	26.4	0
0	13923	26.45	1
0	13924	26.45	1
0	13925	26.45	0
0	13926	26.45	0
0	13954	26.5	1
0	13955	26.5	1
0	13956	26.5	0
0	13957	26.5	0
0	13959	26.5	1
0	13960	26.5	1
0	13961	26.5	0
0	13962	26.5	0
0	13979	26.55	1
0	13980	26.55	1
0	13981	26.55	0
0	13982	26.55	0
0	13995	26.6	1
0	13996	26.6	1
0	13997	26.6	0
0	13998	26.6	0
0	14000	26.6	1
0	14001	26.6	1
0	14002	26.6	0
0	14003	26.6	0
0	14046	26.65	1
0	14047	26.65	1
0	14048	26.65	0
0	14049	26.65	0
0	14062	26.7	1
0	14063	26.7	1
0	14064	26.7	0
0	14065	26.7	0
0	14067	26.7	1
0	14068	26.7	1
0	14069	26.7	0
0	14070	26.7	0
0	14087	26.75	1
0	14088	26.75	1
0	14089	26.75	0
0	14090	26.75	0
0	14103	26.8	1
0	14104	26.8	1
0	14105	26.8	0
0	14106	26.8	0
0	14108	26.8	1
0	14109	26.8	1
0	14110	26.8	0
0	14111	26.8	0
0	14128	26.85	1
0	14129	26.85	1
0	14130	26.85	0
0	14131	26.85	0
0	14144	26.9	1
0	14145	26.9	1
0	14146	26.9	0
0	14147	26.9	0
0	14149	26.9	1
0	14150	26.9	1
0	14151	26.9	0
0	14152	26.9	0
0	14169	26.95	1
0	14170	26.95	1
0	14171	26.95	0
0	14172	26.95	0
0	14187	27	1
0	14188	27	1
0	14189	27	0
0	14190	27	0
0	14192	27	1
0	14193	27	1
0	14194	27	0
0	14195	27	0
0	14226	27.05	1
0	14227	27.05	1
0	14228	27.05	0
0	14229	27.05	0
0	14246	27.1	1
0	14247	27.1	1
0	14248	27.1	0
0	14249	27.1	0
0	14251	27.1	1
0	14252	27.1	1
0	14253	27.1	0
0	14254	27.1	0
0	14275	27.15	1
0	14276	27.15	1
0	14277	27.15	0
0	14278	27.15	0
0	14317	27.2	1
0	14318	27.2	1
0	14319	27.2	0
0	14320	27.2	0
0	14322	27.2	1
0	14323	27.2	1
0	14324	27.2	0
0	14325	27.2	0
0	14342	27.25	1
0	14343	27.25	1
0	14344	27.25	0
0	14345	27.25	0
0	14358	27.3	1
0	14359	27.3	1
0	14360	27.3	0
0	14361	27.3	0
0	14363	27.3	1
0	14364	27.3	1
0	14365	27.3	0
0	14366	27.3	0
0	14383	27.35	1
0	14384	27.35	1
0	14385	27.35	0
0	14386	27.35	0
0	14399	27.4	1
0	14400	27.4	1
0	14401	27.4	0
0	14402	27.4	0
0	14404	27.4	1
0	14405	27.4	1
0	14406	27.4	0
0	14407	27.4	0
0	14424	27.45	1
0	14425	27.45	1
0	14426	27.45	0
0	14427	27.45	0
0	14440	27.5	1
0	14441	27.5	1
0	14442	27.5	0
0	14443	27.5	0
0	14445	27.5	1
0	14446	27.5	1
0	14447	27.5	0
0	14448	27.5	0
0	14465	27.55	1
0	14466	27.55	1
0	14467	27.55	0
0	14468	27.55	0
0	14495	27.6	1
0	14496	27.6	1
0	14497	27.6	0
0	14498	27.6	0
0	14500	27.6	1
0	14501	27.6	1
0	14502	27.6	0
0	14503	27.6	0
0	14520	27.65	1
0	14521	27.65	1
0	14522	27.65	0
0	14523	27.65	0
0	14536	27.7	1
0	14537	27.7	1
0	14538	27.7	0
0	14539	27.7	0
0	14541	27.7	1
0	14542	27.7	1
0	14543	27.7	0
0	14544	27.7	0
0	14575	27.75	1
0	14576	27.75	1
0	14577	27.75	0
0	14578	27.75	0
0	14591	27.8	1
0	14592	27.8	1
0	14593	27.8	0
0	14594	27.8	0
0	14596	27.8	1
0	14597	27.8	1
0	14598	27.8	0
0	14599	27.8	0
0	14616	27.85	1
0	14617	27.85	1
0	14618	27.85	0
0	14619	27.85	0
0	14632	27.9	1
0	14633	27.9	1
0	14634	27.9	0
0	14635	27.9	0
0	14637	27.9	1
0	14638	27.9	1
0	14639	27.9	0
0	14640	27.9	0
0	14657	27.95	1
0	14658	27.95	1
0	14659	27.95	0
0	14660	27.95	0
0	14673	28	1
0	14674	28	1
0	14675	28	0
0	14676	28	0
0	14678	28	1
0	14679	28	1
0	14680	28	0
0	14681	28	0
0	14698	28.05	1
0	14699	28.05	1
0	14700	28.05	0
0	14701	28.05	0
0	14718	28.1	1
0	14719	28.1	1
0	14720	28.1	0
0	14721	28.1	0
0	14723	28.1	1
0	14724	28.1	1
0	14725	28.1	0
0	14726	28.1	0
0	14761	28.15	1
0	14762	28.15	1
0	14763	28.15	0
0	14764	28.15	0
0	14777	28.2	1
0	14778	28.2	1
0	14779	28.2	0
0	14780	28.2	0
0	14782	28.2	1
0	14783	28.2	1
0	14784	28.2	0
0	14785	28.2	0
0	14802	28.25	1
0	14803	28.25	1
0	14804	28.25	0
0	14805	28.25	0
0	14844	28.3	1
0	14845	28.3	1
0	14846	28.3	0
0	14847	28.3	0
0	14849	28.3	1
0	14850	28.3	1
0	14851	28.3	0
0	14852	28.3	0
0	14869	28.35	1
0	14870	28.35	1
0	14871	28.35	0
0	14872	28.35	0
0	14885	28.4	1
0	14886	28.4	1
0	14887	28.4	0
0	14888	28.4	0
0	14890	28.4	1
0	14891	28.4	1
0	14892	28.4	0
0	14893	28.4	0
0	14910	28.45	1
0	14911	28.45	1
0	14912	28.45	0
0	14913	28.45	0
0	14926	28.5	1
0	14927	28.5	1
0	14928	28.5	0
0	14929	28.5	0
0	14931	28.5	1
0	14932	28.5	1
0	14933	28.5	0
0	14934	28.5	0
0	14951	28.55	1
0	14952	28.55	1
0	14953	28.55	0
0	14954	28.55	0
0	14967	28.6	1
0	14968	28.6	1
0	14969	28.6	0
0	14970	28.6	0
0	14972	28.6	1
0	14973	28.6	1
0	14974	28.6	0
0	14975	28.6	0
0	14992	28.65	1
0	14993	28.65	1
0	14994	28.65	0
0	14995	28.65	0
0	15022	28.7	1
0	15023	28.7	1
0	15024	28.7	0
0	15025	28.7	0
0	15027	28.7	1
0	15028	28.7	1
0	15029	28.7	0
0	15030	28.7	0
0	15047	28.75	1
0	15048	28.75	1
0	15049	28.75	0
0	15050	28.75	0
0	15063	28.8	1
0	15064	28.8	1
0	15065	28.8	0
0	15066	28.8	0
0	15068	28.8	1
0	15069	28.8	1
0	15070	28.8	0
0	15071	28.8	0
0	15102	28.85	1
0	15103	28.85	1
0	15104	28.85	0
0	15105	28.85	0
0	15118	28.9	1
0	15119	28.9	1
0	15120	28.9	0
0	15121	28.9	0
0	15123	28.9	1
0	15124	28.9	1
0	15125	28.9	0
0	15126	28.9	0
0	15143	28.95	1
0	15144	28.95	1
0	15145	28.95	0
0	15146	28.95	0
0	15159	29	1
0	15160	29	1
0	15161	29	0
0	15162	29	0
0	15164	29	1
0	15165	29	1
0	15166	29	0
0	15167	29	0
0	15184	29.05	1
0	15185	29.05	1
0	15186	29.05	0
0	15187	29.05	0
0	15204	29.1	1
0	15205	29.1	1
0	15206	29.1	0
0	15207	29.1	0
0	15209	29.1	1
0	15210	29.1	1
0	15211	29.1	0
0	15212	29.1	0
0	15233	29.15	1
0	15234	29.15	1
0	15235	29.15	0
0	15236	29.15	0
0	15249	29.2	1
0	15250	29.2	1
0	15251	29.2	0
0	15252	29.2	0
0	15254	29.2	1
0	15255	29.2	1
0	15256	29.2	0
0	15257	29.2	0
0	15288	29.25	1
0	15289	29.25	1
0	15290	29.25	0
0	15291	29.25	0
0	15304	29.3	1
0	15305	29.3	1
0	15306	29.3	0
0	15307	29.3	0
0	15309	29.3	1
0	15310	29.3	1
0	15311	29.3	0
0	15312	29.3	0
0	15329	29.35	1
0	15330	29.35	1
0	15331	29.35	0
0	15332	29.35	0
0	15371	29.4	1
0	15372	29.4	1
0	15373	29.4	0
0	15374	29.4	0
0	15376	29.4	1
0	15377	29.4	1
0	15378	29.4	0
0	15379	29.4	0
0	15396	29.45	1
0	15397	29.45	1
0	15398	29.45	0
0	15399	29.45	0
0	15412	29.5	1
0	15413	29.5	1
0	15414	29.5	0
0	15415	29.5	0
0	15417	29.5	1
0	15418	29.5	1
0	15419	29.5	0
0	15420	29.5	0
0	15437	29.55	1
0	15438	29.55	1
0	15439	29.55	0
0	15440	29.55	0
0	15453	29.6	1
0	15454	29.6	1
0	15455	29.6	0
0	15456	29.6	0
0	15458	29.6	1
0	15459	29.6	1
0	15460	29.6	0
0	15461	29.6	0
0	15478	29.65	1
0	15479	29.65	1
0	15480	29.65	0
0	15481	29.65	0
0	15494	29.7	1
0	15495	29.7	1
0	15496	29.7	0
0	15497	29.7	0
0	15499	29.7	1
0	15500	29.7	1
0	15501	29.7	0
0	15502	29.7	0
0	15519	29.75	1
0	15520	29.75	1
0	15521	29.75	0
0	15522	29.75	0
0	15538	29.8	1
0	15539	29.8	1
0	15540	29.8	0
0	15541	29.8	0
0	15543	29.8	1
0	15544	29.8	1
0	15545	29.8	0
0	15546	29.8	0
0	15563	29.85	1
0	15564	29.85	1
0	15565	29.85	0
0	15566	29.85	0
0	15579	29.9	1
0	15580	29.9	1
0	15581	29.9	0
0	15582	29.9	0
0	15584	29.9	1
0	15585	29.9	1
0	15586	29.9	0
0	15587	29.9	0
0	15604	29.95	1
0	15605	29.95	1
0	15606	29.95	0
0	15607	29.95	0
0	15621	30	1
0	15622	30	1
0	15623	30	0
0	15624	30	0
0	15626	30	1
0	15627	30	1
0	15628	30	0
0	15629	30	0
0	15646	30.05	1
0	15647	30.05	1
0	15648	30.05	0
0	15649	30.05	0
0	15666	30.1	1
0	15667	30.1	1
0	15668	30.1	0
0	15669	30.1	0
0	15671	30.1	1
0	15672	30.1	1
0	15673	30.1	0
0	15674	30.1	0
0	15695	30.15	1
0	15696	30.15	1
0	15697	30.15	0
0	15698	30.15	0
0	15711	30.2	1
0	15712	30.2	1
0	15713	30.2	0
0	15714	30.2	0
0	15716	30.2	1
0	15717	30.2	1
0	15718	30.2	0
0	15719	30.2	0
0	15736	30.25	1
0	15737	30.25	1
0	15738	30.25	0
0	15739	30.25	0
0	15752	30.3	1
0	15753	30.3	1
0	15754	30.3	0
0	15755	30.3	0
0	15757	30.3	1
0	15758	30.3	1
0	15759	30.3	0
0	15760	30.3	0
0	15777	30.35	1
0	15778	30.35	1
0	15779	30.35	0
0	15780	30.35	0
0	15793	30.4	1
0	15794	30.4	1
0	15795	30.4	0
0	15796	30.4	0
0	15798	30.4	1
0	15799	30.4	1
0	15800	30.4	0
0	15801	30.4	0
0	15818	30.45	1
0	15819	30.45	1
0	15820	30.45	0
0	15821	30.45	0
0	15834	30.5	1
0	15835	30.5	1
0	15836	30.5	0
0	15837	30.5	0
0	15839	30.5	1
0	15840	30.5	1
0	15841	30.5	0
0	15842	30.5	0
0	15859	30.55	1
0	15860	30.55	1
0	15861	30.55	0
0	15862	30.55	0
0	15875	30.6	1
0	15876	30.6	1
0	15877	30.6	0
0	15878	30.6	0
0	15880	30.6	1
0	15881	30.6	1
0	15882	30.6	0
0	15883	30.6	0
0	15900	30.65	1
0	15901	30.65	1
0	15902	30.65	0
0	15903	30.65	0
0	15916	30.7	1
0	15917	30.7	1
0	15918	30.7	0
0	15919	30.7	0
0	15921	30.7	1
0	15922	30.7	1
0	15923	30.7	0
0	15924	30.7	0
0	15941	30.75	1
0	15942	30.75	1
0	15943	30.75	0
0	15944	30.75	0
0	15957	30.8	1
0	15958	30.8	1
0	15959	30.8	0
0	15960	30.8	0
0	15962	30.8	1
0	15963	30.8	1
0	15964	30.8	0
0	15965	30.8	0
0	15982	30.85	1
0	15983	30.85	1
0	15984	30.85	0
0	15985	30.85	0
0	15998	30.9	1
0	15999	30.9	1
0	16000	30.9	0
0	16001	30.9	0
0	16003	30.9	1
0	16004	30.9	1
0	16005	30.9	0
0	16006	30.9	0
0	16023	30.95	1
0	16024	30.95	1
0	16025	30.95	0
0	16026	30.95	0
0	16065	31	1
0	16066	31	1
0	16067	31	0
0	16068	31	0
0	16070	31	1
0	16071	31	1
0	16072	31	0
0	16073	31	0
0	16090	31.05	1
0	16091	31.05	1
0	16092	31.05	0
0	16093	31.05	0
0	16110	31.1	1
0	16111	31.1	1
0	16112	31.1	0
0	16113	31.1	0
0	16115	31.1	1
0	16116	31.1	1
0	16117	31.1	0
0	16118	31.1	0
0	16153	31.15	1
0	16154	31.15	1
0	16155	31.15	0
0	16156	31.15	0
0	16169	31.2	1
0	16170	31.2	1
0	16171	31.2	0
0	16172	31.2	0
0	16174	31.2	1
0	16175	31.2	1
0	16176	31.2	0
0	16177	31.2	0
0	16194	31.25	1
0	16195	31.25	1
0	16196	31.25	0
0	16197	31.25	0
0	16210	31.3	1
0	16211	31.3	1
0	16212	31.3	0
0	16213	31.3	0
0	16215	31.3	1
0	16216	31.3	1
0	16217	31.3	0
0	16218	31.3	0
0	16235	31.35	1
0	16236	31.35	1
0	16237	31.35	0
0	16238	31.35	0
0	16251	31.4	1
0	16252	31.4	1
0	16253	31.4	0
0	16254	31.4	0
0	16256	31.4	1
0	16257	31.4	1
0	16258	31.4	0
0	16259	31.4	0
0	16276	31.45	1
0	16277	31.45	1
0	16278	31.45	0
0	16279	31.45	0
0	16293	31.5	1
0	16294	31.5	1
0	16295	31.5	0
0	16296	31.5	0
0	16298	31.5	1
0	16299	31.5	1
0	16300	31.5	0
0	16301	31.5	0
0	16344	31.55	1
0	16345	31.55	1
0	16346	31.55	0
0	16347	31.55	0
0	16360	31.6	1
0	16361	31.6	1
0	16362	31.6	0
0	16363	31.6	0
0	16365	31.6	1
0	16366	31.6	1
0	16367	31.6	0
0	16368	31.6	0
0	16385	31.65	1
0	16386	31.65	1
0	16387	31.65	0
0	16388	31.65	0
0	16415	31.7	1
0	16416	31.7	1
0	16417	31.7	0
0	16418	31.7	0
0	16420	31.7	1
0	16421	31.7	1
0	16422	31.7	0
0	16423	31.7	0
0	16440	31.75	1
0	16441	31.75	1
0	16442	31.75	0
0	16443	31.75	0
0	16456	31.8	1
0	16457	31.8	1
0	16458	31.8	0
0	16459	31.8	0
0	16461	31.8	1
0	16462	31.8	1
0	16463	31.8	0
0	16464	31.8	0
0	16481	31.85	1
0	16482	31.85	1
0	16483	31.85	0
0	16484	31.85	0
0	16497	31.9	1
0	16498	31.9	1
0	16499	31.9	0
0	16500	31.9	0
0	16502	31.9	1
0	16503	31.9	1
0	16504	31.9	0
0	16505	31.9	0
0	16522	31.95	1
0	16523	31.95	1
0	16524	31.95	0
0	16525	31.95	0
0	16540	32	1
0	16541	32	1
0	16542	32	0
0	16543	32	0
0	16545	32	1
0	16546	32	1
0	16547	32	0
0	16548	32	0
0	16565	32.05	1
0	16566	32.05	1
0	16567	32.05	0
0	16568	32.05	0
0	16599	32.1	1
0	16600	32.1	1
0	16601	32.1	0
0	16602	32.1	0
0	16604	32.1	1
0	16605	32.1	1
0	16606	32.1	0
0	16607	32.1	0
0	16628	32.15	1
0	16629	32.15	1
0	16630	32.15	0
0	16631	32.15	0
0	16644	32.2	1
0	16645	32.2	1
0	16646	32.2	0
0	16647	32.2	0
0	16649	32.2	1
0	16650	32.2	1
0	16651	32.2	0
0	16652	32.2	0
0	16683	32.25	1
0	16684	32.25	1
0	16685	32.25	0
0	16686	32.25	0
0	16699	32.3	1
0	16700	32.3	1
0	16701	32.3	0
0	16702	32.3	0
0	16704	32.3	1
0	16705	32.3	1
0	16706	32.3	0
0	16707	32.3	0
0	16724	32.35	1
0	16725	32.35	1
0	16726	32.35	0
0	16727	32.35	0
0	16740	32.4	1
0	16741	32.4	1
0	16742	32.4	0
0	16743	32.4	0
0	16745	32.4	1
0	16746	32.4	1
0	16747	32.4	0
0	16748	32.4	0
0	16765	32.45	1
0	16766	32.45	1
0	16767	32.45	0
0	16768	32.45	0
0	16781	32.5	1
0	16782	32.5	1
0	16783	32.5	0
0	16784	32.5	0
0	16786	32.5	1
0	16787	32.5	1
0	16788	32.5	0
0	16789	32.5	0
0	16806	32.55	1
0	16807	32.55	1
0	16808	32.55	0
0	16809	32.55	0
0	16822	32.6	1
0	16823	32.6	1
0	16824	32.6	0
0	16825	32.6	0
0	16827	32.6	1
0	16828	32.6	1
0	16829	32.6	0
0	16830	32.6	0
0	16857	32.65	1
0	16858	32.65	1
0	16859	32.65	0
0	16860	32.65	0
0	16873	32.7	1
0	16874	32.7	1
0	16875	32.7	0
0	16876	32.7	0
0	16878	32.7	1
0	16879	32.7	1
0	16880	32.7	0
0	16881	32.7	0
0	16898	32.75	1
0	16899	32.75	1
0	16900	32.75	0
0	16901	32.75	0
0	16928	32.8	1
0	16929	32.8	1
0	16930	32.8	0
0	16931	32.8	0
0	16933	32.8	1
0	16934	32.8	1
0	16935	32.8	0
0	16936	32.8	0
0	16953	32.85	1
0	16954	32.85	1
0	16955	32.85	0
0	16956	32.85	0
0	16969	32.9	1
0	16970	32.9	1
0	16971	32.9	0
0	16972	32.9	0
0	16974	32.9	1
0	16975	32.9	1
0	16976	32.9	0
0	16977	32.9	0
0	16994	32.95	1
0	16995	32.95	1
0	16996	32.95	0
0	16997	32.95	0
0	17010	33	1
0	17011	33	1
0	17012	33	0
0	17013	33	0
0	17015	33	1
0	17016	33	1
0	17017	33	0
0	17018	33	0
0	17035	33.05	1
0	17036	33.05	1
0	17037	33.05	0
0	17038	33.05	0
0	17055	33.1	1
0	17056	33.1	1
0	17057	33.1	0
0	17058	33.1	0
0	17060	33.1	1
0	17061	33.1	1
0	17062	33.1	0
0	17063	33.1	0
0	17084	33.15	1
0	17085	33.15	1
0	17086	33.15	0
0	17087	33.15	0
0	17135	33.2	1
0	17136	33.2	1
0	17137	33.2	0
0	17138	33.2	0
0	17140	33.2	1
0	17141	33.2	1
0	17142	33.2	0
0	17143	33.2	0
0	17160	33.25	1
0	17161	33.25	1
0	17162	33.25	0
0	17163	33.25	0
0	17176	33.3	1
0	17177	33.3	1
0	17178	33.3	0
0	17179	33.3	0
0	17181	33.3	1
0	17182	33.3	1
0	17183	33.3	0
0	17184	33.3	0
0	17215	33.35	1
0	17216	33.35	1
0	17217	33.35	0
0	17218	33.35	0
0	17231	33.4	1
0	17232	33.4	1
0	17233	33.4	0
0	17234	33.4	0
0	17236	33.4	1
0	17237	33.4	1
0	17238	33.4	0
0	17239	33.4	0
0	17256	33.45	1
0	17257	33.45	1
0	17258	33.45	0
0	17259	33.45	0
0	17272	33.5	1
0	17273	33.5	1
0	17274	33.5	0
0	17275	33.5	0
0	17277	33.5	1
0	17278	33.5	1
0	17279	33.5	0
0	17280	33.5	0
0	17297	33.55	1
0	17298	33.55	1
0	17299	33.55	0
0	17300	33.55	0
0	17313	33.6	1
0	17314	33.6	1
0	17315	33.6	0
0	17316	33.6	0
0	17318	33.6	1
0	17319	33.6	1
0	17320	33.6	0
0	17321	33.6	0
0	17338	33.65	1
0	17339	33.65	1
0	17340	33.65	0
0	17341	33.65	0
0	17354	33.7	1
0	17355	33.7	1
0	17356	33.7	0
0	17357	33.7	0
0	17359	33.7	1
0	17360	33.7	1
0	17361	33.7	0
0	17362	33.7	0
0	17389	33.75	1
0	17390	33.75	1
0	17391	33.75	0
0	17392	33.75	0
0	17405	33.8	1
0	17406	33.8	1
0	17407	33.8	0
0	17408	33.8	0
0	17410	33.8	1
0	17411	33.8	1
0	17412	33.8	0
0	17413	33.8	0
0	17430	33.85	1
0	17431	33.85	1
0	17432	33.85	0
0	17433	33.85	0
0	17460	33.9	1
0	17461	33.9	1
0	17462	33.9	0
0	17463	33.9	0
0	17465	33.9	1
0	17466	33.9	1
0	17467	33.9	0
0	17468	33.9	0
0	17485	33.95	1
0	17486	33.95	1
0	17487	33.95	0
0	17488	33.95	0
0	17501	34	1
0	17502	34	1
0	17503	34	0
0	17504	34	0
0	17506	34	1
0	17507	34	1
0	17508	34	0
0	17509	34	0
0	17526	34.05	1
0	17527	34.05	1
0	17528	34.05	0
0	17529	34.05	0
0	17546	34.1	1
0	17547	34.1	1
0	17548	34.1	0
0	17549	34.1	0
0	17551	34.1	1
0	17552	34.1	1
0	17553	34.1	0
0	17554	34.1	0
0	17575	34.15	1
0	17576	34.15	1
0	17577	34.15	0
0	17578	34.15	0
0	17591	34.2	1
0	17592	34.2	1
0	17593	34.2	0
0	17594	34.2	0
0	17596	34.2	1
0	17597	34.2	1
0	17598	34.2	0
0	17599	34.2	0
0	17616	34.25	1
0	17617	34.25	1
0	17618	34.25	0
0	17619	34.25	0
0	17670	34.3	1
0	17671	34.3	1
0	17672	34.3	0
0	17673	34.3	0
0	17675	34.3	1
0	17676	34.3	1
0	17677	34.3	0
0	17678	34.3	0
0	17695	34.35	1
0	17696	34.35	1
0	17697	34.35	0
0	17698	34.35	0
0	17711	34.4	1
0	17712	34.4	1
0	17713	34.4	0
0	17714	34.4	0
0	17716	34.4	1
0	17717	34.4	1
0	17718	34.4	0
0	17719	34.4	0
0	17750	34.45	1
0	17751	34.45	1
0	17752	34.45	0
0	17753	34.45	0
0	17766	34.5	1
0	17767	34.5	1
0	17768	34.5	0
0	17769	34.5	0
0	17771	34.5	1
0	17772	34.5	1
0	17773	34.5	0
0	17774	34.5	0
0	17791	34.55	1
0	17792	34.55	1
0	17793	34.55	0
0	17794	34.55	0
0	17807	34.6	1
0	17808	34.6	1
0	17809	34.6	0
0	17810	34.6	0
0	17812	34.6	1
0	17813	34.6	1
0	17814	34.6	0
0	17815	34.6	0
0	17832	34.65	1
0	17833	34.65	1
0	17834	34.65	0
0	17835	34.65	0
0	17848	34.7	1
0	17849	34.7	1
0	17850	34.7	0
0	17851	34.7	0
0	17853	34.7	1
0	17854	34.7	1
0	17855	34.7	0
0	17856	34.7	0
0	17873	34.75	1
0	17874	34.75	1
0	17875	34.75	0
0	17876	34.75	0
0	17889	34.8	1
0	17890	34.8	1
0	17891	34.8	0
0	17892	34.8	0
0	17894	34.8	1
0	17895	34.8	1
0	17896	34.8	0
0	17897	34.8	0
0	17928	34.85	1
0	17929	34.85	1
0	17930	34.85	0
0	17931	34.85	0
0	17944	34.9	1
0	17945	34.9	1
0	17946	34.9	0
0	17947	34.9	0
0	17949	34.9	1
0	17950	34.9	1
0	17951	34.9	0
0	17952	34.9	0
0	17969	34.95	1
0	17970	34.95	1
0	17971	34.95	0
0	17972	34.95	0
0	18000	35	1
0	18001	35	1
0	18002	35	0
0	18003	35	0
0	18005	35	1
0	18006	35	1
0	18007	35	0
0	18008	35	0
0	18025	35.05	1
0	18026	35.05	1
0	18027	35.05	0
0	18028	35.05	0
0	18045	35.1	1
0	18046	35.1	1
0	18047	35.1	0
0	18048	35.1	0
0	18050	35.1	1
0	18051	35.1	1
0	18052	35.1	0
0	18053	35.1	0
0	18074	35.15	1
0	18075	35.15	1
0	18076	35.15	0
0	18077	35.15	0
0	18090	35.2	1
0	18091	35.2	1
0	18092	35.2	0
0	18093	35.2	0
0	18095	35.2	1
0	18096	35.2	1
0	18097	35.2	0
0	18098	35.2	0
0	18115	35.25	1
0	18116	35.25	1
0	18117	35.25	0
0	18118	35.25	0
0	18131	35.3	1
0	18132	35.3	1
0	18133	35.3	0
0	18134	35.3	0
0	18136	35.3	1
0	18137	35.3	1
0	18138	35.3	0
0	18139	35.3	0
0	18156	35.35	1
0	18157	35.35	1
0	18158	35.35	0
0	18159	35.35	0
0	18195	35.4	1
0	18196	35.4	1
0	18197	35.4	0
0	18198	35.4	0
0	18200	35.4	1
0	18201	35.4	1
0	18202	35.4	0
0	18203	35.4	0
0	18220	35.45	1
0	18221	35.45	1
0	18222	35.45	0
0	18223	35.45	0
0	18236	35.5	1
0	18237	35.5	1
0	18238	35.5	0
0	18239	35.5	0
0	18241	35.5	1
0	18242	35.5	1
0	18243	35.5	0
0	18244	35.5	0
0	18264	35.55	1
0	18265	35.55	1
0	18266	35.55	0
0	18267	35.55	0
0	18280	35.6	1
0	18281	35.6	1
0	18282	35.6	0
0	18283	35.6	0
0	18285	35.6	1
0	18286	35.6	1
0	18287	35.6	0
0	18288	35.6	0
0	18305	35.65	1
0	18306	35.65	1
0	18307	35.65	0
0	18308	35.65	0
0	18321	35.7	1
0	18322	35.7	1
0	18323	35.7	0
0	18324	35.7	0
0	18326	35.7	1
0	18327	35.7	1
0	18328	35.7	0
0	18329	35.7	0
0	18346	35.75	1
0	18347	35.75	1
0	18348	35.75	0
0	18349	35.75	0
0	18362	35.8	1
0	18363	35.8	1
0	18364	35.8	0
0	18365	35.8	0
0	18367	35.8	1
0	18368	35.8	1
0	18369	35.8	0
0	18370	35.8	0
0	18387	35.85	1
0	18388	35.85	1
0	18389	35.85	0
0	18390	35.85	0
0	18403	35.9	1
0	18404	35.9	1
0	18405	35.9	0
0	18406	35.9	0
0	18408	35.9	1
0	18409	35.9	1
0	18410	35.9	0
0	18411	35.9	0
0	18428	35.95	1
0	18429	35.95	1
0	18430	35.95	0
0	18431	35.95	0
0	18444	36	1
0	18445	36	1
0	18446	36	0
0	18447	36	0
0	18449	36	1
0	18450	36	1
0	18451	36	0
0	18452	36	0
0	18469	36.05	1
0	18470	36.05	1
0	18471	36.05	0
0	18472	36.05	0
0	18489	36.1	1
0	18490	36.1	1
0	18491	36.1	0
0	18492	36.1	0
0	18494	36.1	1
0	18495	36.1	1
0	18496	36.1	0
0	18497	36.1	0
0	18518	36.15	1
0	18519	36.15	1
0	18520	36.15	0
0	18521	36.15	0
0	18534	36.2	1
0	18535	36.2	1
0	18536	36.2	0
0	18537	36.2	0
0	18539	36.2	1
0	18540	36.2	1
0	18541	36.2	0
0	18542	36.2	0
0	18559	36.25	1
0	18560	36.25	1
0	18561	36.25	0
0	18562	36.25	0
0	18575	36.3	1
0	18576	36.3	1
0	18577	36.3	0
0	18578	36.3	0
0	18580	36.3	1
0	18581	36.3	1
0	18582	36.3	0
0	18583	36.3	0
0	18600	36.35	1
0	18601	36.35	1
0	18602	36.35	0
0	18603	36.35	0
0	18616	36.4	1
0	18617	36.4	1
0	18618	36.4	0
0	18619	36.4	0
0	18621	36.4	1
0	18622	36.4	1
0	18623	36.4	0
0	18624	36.4	0
0	18641	36.45	1
0	18642	36.45	1
0	18643	36.45	0
0	18644	36.45	0
0	18658	36.5	1
0	18659	36.5	1
0	18660	36.5	0
0	18661	36.5	0
0	18663	36.5	1
0	18664	36.5	1
0	18665	36.5	0
0	18666	36.5	0
0	18683	36.55	1
0	18684	36.55	1
0	18685	36.55	0
0	18686	36.55	0
0	18699	36.6	1
0	18700	36.6	1
0	18701	36.6	0
0	18702	36.6	0
0	18704	36.6	1
0	18705	36.6	1
0	18706	36.6	0
0	18707	36.6	0
0	18724	36.65	1
0	18725	36.65	1
0	18726	36.65	0
0	18727	36.65	0
0	18740	36.7	1
0	18741	36.7	1
0	18742	36.7	0
0	18743	36.7	0
0	18745	36.7	1
0	18746	36.7	1
0	18747	36.7	0
0	18748	36.7	0
0	18765	36.75	1
0	18766	36.75	1
0	18767	36.75	0
0	18768	36.75	0
0	18781	36.8	1
0	18782	36.8	1
0	18783	36.8	0
0	18784	36.8	0
0	18786	36.8	1
0	18787	36.8	1
0	18788	36.8	0
0	18789	36.8	0
0	18806	36.85	1
0	18807	36.85	1
0	18808	36.85	0
0	18809	36.85	0
0	18822	36.9	1
0	18823	36.9	1
0	18824	36.9	0
0	18825	36.9	0
0	18827	36.9	1
0	18828	36.9	1
0	18829	36.9	0
0	18830	36.9	0
0	18847	36.95	1
0	18848	36.95	1
0	18849	36.95	0
0	18850	36.95	0
0	18903	37	1
0	18904	37	1
0	18905	37	0
0	18906	37	0
0	18908	37	1
0	18909	37	1
0	18910	37	0
0	18911	37	0
0	18928	37.05	1
0	18929	37.05	1
0	18930	37.05	0
0	18931	37.05	0
0	18948	37.1	1
0	18949	37.1	1
0	18950	37.1	0
0	18951	37.1	0
0	18953	37.1	1
0	18954	37.1	1
0	18955	37.1	0
0	18956	37.1	0
0	18991	37.15	1
0	18992	37.15	1
0	18993	37.15	0
0	18994	37.15	0
0	19007	37.2	1
0	19008	37.2	1
0	19009	37.2	0
0	19010	37.2	0
0	19012	37.2	1
0	19013	37.2	1
0	19014	37.2	0
0	19015	37.2	0
0	19032	37.25	1
0	19033	37.25	1
0	19034	37.25	0
0	19035	37.25	0
0	19048	37.3	1
0	19049	37.3	1
0	19050	37.3	0
0	19051	37.3	0
0	19053	37.3	1
0	19054	37.3	1
0	19055	37.3	0
0	19056	37.3	0
0	19073	37.35	1
0	19074	37.35	1
0	19075	37.35	0
0	19076	37.35	0
0	19089	37.4	1
0	19090	37.4	1
0	19091	37.4	0
0	19092	37.4	0
0	19094	37.4	1
0	19095	37.4	1
0	19096	37.4	0
0	19097	37.4	0
0	19114	37.45	1
0	19115	37.45	1
0	19116	37.45	0
0	19117	37.45	0
0	19130	37.5	1
0	19131	37.5	1
0	19132	37.5	0
0	19133	37.5	0
0	19135	37.5	1
0	19136	37.5	1
0	19137	37.5	0
0	19138	37.5	0
0	19181	37.55	1
0	19182	37.55	1
0	19183	37.55	0
0	19184	37.55	0
0	19197	37.6	1
0	19198	37.6	1
0	19199	37.6	0
0	19200	37.6	0
0	19202	37.6	1
0	19203	37.6	1
0	19204	37.6	0
0	19205	37.6	0
0	19222	37.65	1
0	19223	37.65	1
0	19224	37.65	0
0	19225	37.65	0
0	19252	37.7	1
0	19253	37.7	1
0	19254	37.7	0
0	19255	37.7	0
0	19257	37.7	1
0	19258	37.7	1
0	19259	37.7	0
0	19260	37.7	0
0	19277	37.75	1
0	19278	37.75	1
0	19279	37.75	0
0	19280	37.75	0
0	19293	37.8	1
0	19294	37.8	1
0	19295	37.8	0
0	19296	37.8	0
0	19298	37.8	1
0	19299	37.8	1
0	19300	37.8	0
0	19301	37.8	0
0	19318	37.85	1
0	19319	37.85	1
0	19320	37.85	0
0	19321	37.85	0
0	19334	37.9	1
0	19335	37.9	1
0	19336	37.9	0
0	19337	37.9	0
0	19339	37.9	1
0	19340	37.9	1
0	19341	37.9	0
0	19342	37.9	0
0	19359	37.95	1
0	19360	37.95	1
0	19361	37.95	0
0	19362	37.95	0
0	19375	38	1
0	19376	38	1
0	19377	38	0
0	19378	38	0
0	19380	38	1
0	19381	38	1
0	19382	38	0
0	19383	38	0
0	19400	38.05	1
0	19401	38.05	1
0	19402	38.05	0
0	19403	38.05	0
0	19434	38.1	1
0	19435	38.1	1
0	19436	38.1	0
0	19437	38.1	0
0	19439	38.1	1
0	19440	38.1	1
0	19441	38.1	0
0	19442	38.1	0
0	19463	38.15	1
0	19464	38.15	1
0	19465	38.15	0
0	19466	38.15	0
0	19479	38.2	1
0	19480	38.2	1
0	19481	38.2	0
0	19482	38.2	0
0	19484	38.2	1
0	19485	38.2	1
0	19486	38.2	0
0	19487	38.2	0
0	19518	38.25	1
0	19519	38.25	1
0	19520	38.25	0
0	19521	38.25	0
0	19534	38.3	1
0	19535	38.3	1
0	19536	38.3	0
0	19537	38.3	0
0	19539	38.3	1
0	19540	38.3	1
0	19541	38.3	0
0	19542	38.3	0
0	19559	38.35	1
0	19560	38.35	1
0	19561	38.35	0
0	19562	38.35	0
0	19575	38.4	1
0	19576	38.4	1
0	19577	38.4	0
0	19578	38.4	0
0	19580	38.4	1
0	19581	38.4	1
0	19582	38.4	0
0	19583	38.4	0
0	19600	38.45	1
0	19601	38.45	1
0	19602	38.45	0
0	19603	38.45	0
0	19616	38.5	1
0	19617	38.5	1
0	19618	38.5	0
0	19619	38.5	0
0	19621	38.5	1
0	19622	38.5	1
0	19623	38.5	0
0	19624	38.5	0
0	19641	38.55	1
0	19642	38.55	1
0	19643	38.55	0
0	19644	38.55	0
0	19657	38.6	1
0	19658	38.6	1
0	19659	38.6	0
0	19660	38.6	0
0	19662	38.6	1
0	19663	38.6	1
0	19664	38.6	0
0	19665	38.6	0
0	19708	38.65	1
0	19709	38.65	1
0	19710	38.65	0
0	19711	38.65	0
0	19724	38.7	1
0	19725	38.7	1
0	19726	38.7	0
0	19727	38.7	0
0	19729	38.7	1
0	19730	38.7	1
0	19731	38.7	0
0	19732	38.7	0
0	19749	38.75	1
0	19750	38.75	1
0	19751	38.75	0
0	19752	38.75	0
0	19779	38.8	1
0	19780	38.8	1
0	19781	38.8	0
0	19782	38.8	0
0	19784	38.8	1
0	19785	38.8	1
0	19786	38.8	0
0	19787	38.8	0
0	19804	38.85	1
0	19805	38.85	1
0	19806	38.85	0
0	19807	38.85	0
0	19820	38.9	1
0	19821	38.9	1
0	19822	38.9	0
0	19823	38.9	0
0	19825	38.9	1
0	19826	38.9	1
0	19827	38.9	0
0	19828	38.9	0
0	19845	38.95	1
0	19846	38.95	1
0	19847	38.95	0
0	19848	38.95	0
0	19861	39	1
0	19862	39	1
0	19863	39	0
0	19864	39	0
0	19866	39	1
0	19867	39	1
0	19868	39	0
0	19869	39	0
0	19886	39.05	1
0	19887	39.05	1
0	19888	39.05	0
0	19889	39.05	0
0	19906	39.1	1
0	19907	39.1	1
0	19908	39.1	0
0	19909	39.1	0
0	19911	39.1	1
0	19912	39.1	1
0	19913	39.1	0
0	19914	39.1	0
0	19935	39.15	1
0	19936	39.15	1
0	19937	39.15	0
0	19938	39.15	0
0	19977	39.2	1
0	19978	39.2	1
0	19979	39.2	0
0	19980	39.2	0
0	19982	39.2	1
0	19983	39.2	1
0	19984	39.2	0
0	19985	39.2	0
0	20002	39.25	1
0	20003	39.25	1
0	20004	39.25	0
0	20005	39.25	0
0	20018	39.3	1
0	20019	39.3	1
0	20020	39.3	0
0	20021	39.3	0
0	20023	39.3	1
0	20024	39.3	1
0	20025	39.3	0
0	20026	39.3	0
0	20057	39.35	1
0	20058	39.35	1
0	20059	39.35	0
0	20060	39.35	0
0	20073	39.4	1
0	20074	39.4	1
0	20075	39.4	0
0	20076	39.4	0
0	20078	39.4	1
0	20079	39.4	1
0	20080	39.4	0
0	20081	39.4	0
0	20098	39.45	1
0	20099	39.45	1
0	20100	39.45	0
0	20101	39.45	0
0	20114	39.5	1
0	20115	39.5	1
0	20116	39.5	0
0	20117	39.5	0
0	20119	39.5	1
0	20120	39.5	1
0	20121	39.5	0
0	20122	39.5	0
0	20139	39.55	1
0	20140	39.55	1
0	20141	39.55	0
0	20142	39.55	0
0	20155	39.6	1
0	20156	39.6	1
0	20157	39.6	0
0	20158	39.6	0
0	20160	39.6	1
0	20161	39.6	1
0	20162	39.6	0
0	20163	39.6	0
0	20180	39.65	1
0	20181	39.65	1
0	20182	39.65	0
0	20183	39.65	0
0	20196	39.7	1
0	20197	39.7	1
0	20198	39.7	0
0	20199	39.7	0
0	20201	39.7	1
0	20202	39.7	1
0	20203	39.7	0
0	20204	39.7	0
0	20235	39.75	1
0	20236	39.75	1
0	20237	39.75	0
0	20238	39.75	0
0	20251	39.8	1
0	20252	39.8	1
0	20253	39.8	0
0	20254	39.8	0
0	20256	39.8	1
0	20257	39.8	1
0	20258	39.8	0
0	20259	39.8	0
0	20276	39.85	1
0	20277	39.85	1
0	20278	39.85	0
0	20279	39.85	0
0	20306	39.9	1
0	20307	39.9	1
0	20308	39.9	0
0	20309	39.9	0
0	20311	39.9	1
0	20312	39.9	1
0	20313	39.9	0
0	20314	39.9	0
0	20331	39.95	1
0	20332	39.95	1
0	20333	39.95	0
0	20334	39.95	0
0	20348	40	1
0	20349	40	1
0	20350	40	0
0	20351	40	0
0	20353	40	1
0	20354	40	1
0	20355	40	0
0	20356	40	0
0	20373	40.05	1
0	20374	40.05	1
0	20375	40.05	0
0	20376	40.05	0
0	20393	40.1	1
0	20394	40.1	1
0	20395	40.1	0
0	20396	40.1	0
0	20398	40.1	1
0	20399	40.1	1
0	20400	40.1	0
0	20401	40.1	0
0	20422	40.15	1
0	20423	40.15	1
0	20424	40.15	0
0	20425	40.15	0
0	20438	40.2	1
0	20439	40.2	1
0	20440	40.2	0
0	20441	40.2	0
0	20443	40.2	1
0	20444	40.2	1
0	20445	40.2	0
0	20446	40.2	0
0	20463	40.25	1
0	20464	40.25	1
0	20465	40.25	0
0	20466	40.25	0
0	20482	40.3	1
0	20483	40.3	1
0	20484	40.3	0
0	20485	40.3	0
0	20487	40.3	1
0	20488	40.3	1
0	20489	40.3	0
0	20490	40.3	0
0	20507	40.35	1
0	20508	40.35	1
0	20509	40.35	0
0	20510	40.35	0
0	20523	40.4	1
0	20524	40.4	1
0	20525	40.4	0
0	20526	40.4	0
0	20528	40.4	1
0	20529	40.4	1
0	20530	40.4	0
0	20531	40.4	0
0	20548	40.45	1
0	20549	40.45	1
0	20550	40.45	0
0	20551	40.45	0
0	20564	40.5	1
0	20565	40.5	1
0	20566	40.5	0
0	20567	40.5	0
0	20569	40.5	1
0	20570	40.5	1
0	20571	40.5	0
0	20572	40.5	0
0	20589	40.55	1
0	20590	40.55	1
0	20591	40.55	0
0	20592	40.55	0
0	20605	40.6	1
0	20606	40.6	1
0	20607	40.6	0
0	20608	40.6	0
0	20610	40.6	1
0	20611	40.6	1
0	20612	40.6	0
0	20613	40.6	0
0	20630	40.65	1
0	20631	40.65	1
0	20632	40.65	0
0	20633	40.65	0
0	20646	40.7	1
0	20647	40.7	1
0	20648	40.7	0
0	20649	40.7	0
0	20651	40.7	1
0	20652	40.7	1
0	20653	40.7	0
0	20654	40.7	0
0	20671	40.75	1
0	20672	40.75	1
0	20673	40.75	0
0	20674	40.75	0
0	20687	40.8	1
0	20688	40.8	1
0	20689	40.8	0
0	20690	40.8	0
0	20692	40.8	1
0	20693	40.8	1
0	20694	40.8	0
0	20695	40.8	0
0	20712	40.85	1
0	20713	40.85	1
0	20714	40.85	0
0	20715	40.85	0
0	20728	40.9	1
0	20729	40.9	1
0	20730	40.9	0
0	20731	40.9	0
0	20733	40.9	1
0	20734	40.9	1
0	20735	40.9	0
0	20736	40.9	0
0	20753	40.95	1
0	20754	40.95	1
0	20755	40.95	0
0	20756	40.95	0
0	20769	41	1
0	20770	41	1
0	20771	41	0
0	20772	41	0
0	20774	41	1
0	20775	41	1
0	20776	41	0
0	20777	41	0
0	20794	41.05	1
0	20795	41.05	1
0	20796	41.05	0
0	20797	41.05	0
0	20814	41.1	1
0	20815	41.1	1
0	20816	41.1	0
0	20817	41.1	0
0	20819	41.1	1
0	20820	41.1	1
0	20821	41.1	0
0	20822	41.1	0
0	20843	41.15	1
0	20844	41.15	1
0	20845	41.15	0
0	20846	41.15	0
0	20859	41.2	1
0	20860	41.2	1
0	20861	41.2	0
0	20862	41.2	0
0	20864	41.2	1
0	20865	41.2	1
0	20866	41.2	0
0	20867	41.2	0
0	20884	41.25	1
0	20885	41.25	1
0	20886	41.25	0
0	20887	41.25	0
0	20900	41.3	1
0	20901	41.3	1
0	20902	41.3	0
0	20903	41.3	0
0	20905	41.3	1
0	20906	41.3	1
0	20907	41.3	0
0	20908	41.3	0
0	20925	41.35	1
0	20926	41.35	1
0	20927	41.35	0
0	20928	41.35	0
0	20941	41.4	1
0	20942	41.4	1
0	20943	41.4	0
0	20944	41.4	0
0	20946	41.4	1
0	20947	41.4	1
0	20948	41.4	0
0	20949	41.4	0
0	20966	41.45	1
0	20967	41.45	1
0	20968	41.45	0
0	20969	41.45	0
0	20997	41.5	1
0	20998	41.5	1
0	20999	41.5	0
0	21000	41.5	0
0	21002	41.5	1
0	21003	41.5	1
0	21004	41.5	0
0	21005	41.5	0
0	21022	41.55	1
0	21023	41.55	1
0	21024	41.55	0
0	21025	41.55	0
0	21038	41.6	1
0	21039	41.6	1
0	21040	41.6	0
0	21041	41.6	0
0	21043	41.6	1
0	21044	41.6	1
0	21045	41.6	0
0	21046	41.6	0
0	21101	41.65	1
0	21102	41.65	1
0	21103	41.65	0
0	21104	41.65	0
0	21117	41.7	1
0	21118	41.7	1
0	21119	41.7	0
0	21120	41.7	0
0	21122	41.7	1
0	21123	41.7	1
0	21124	41.7	0
0	21125	41.7	0
0	21142	41.75	1
0	21143	41.75	1
0	21144	41.75	0
0	21145	41.75	0
0	21158	41.8	1
0	21159	41.8	1
0	21160	41.8	0
0	21161	41.8	0
0	21163	41.8	1
0	21164	41.8	1
0	21165	41.8	0
0	21166	41.8	0
0	21183	41.85	1
0	21184	41.85	1
0	21185	41.85	0
0	21186	41.85	0
0	21199	41.9	1
0	21200	41.9	1
0	21201	41.9	0
0	21202	41.9	0
0	21204	41.9	1
0	21205	41.9	1
0	21206	41.9	0
0	21207	41.9	0
0	21224	41.95	1
0	21225	41.95	1
0	21226	41.95	0
0	21227	41.95	0
0	21242	42	1
0	21243	42	1
0	21244	42	0
0	21245	42	0
0	21247	42	1
0	21248	42	1
0	21249	42	0
0	21250	42	0
0	21281	42.05	1
0	21282	42.05	1
0	21283	42.05	0
0	21284	42.05	0
0	21301	42.1	1
0	21302	42.1	1
0	21303	42.1	0
0	21304	42.1	0
0	21306	42.1	1
0	21307	42.1	1
0	21308	42.1	0
0	21309	42.1	0
0	21330	42.15	1
0	21331	42.15	1
0	21332	42.15	0
0	21333	42.15	0
0	21372	42.2	1
0	21373	42.2	1
0	21374	42.2	0
0	21375	42.2	0
0	21377	42.2	1
0	21378	42.2	1
0	21379	42.2	0
0	21380	42.2	0
0	21397	42.25	1
0	21398	42.25	1
0	21399	42.25	0
0	21400	42.25	0
0	21413	42.3	1
0	21414	42.3	1
0	21415	42.3	0
0	21416	42.3	0
0	21418	42.3	1
0	21419	42.3	1
0	21420	42.3	0
0	21421	42.3	0
0	21438	42.35	1
0	21439	42.35	1
0	21440	42.35	0
0	21441	42.35	0
0	21454	42.4	1
0	21455	42.4	1
0	21456	42.4	0
0	21457	42.4	0
0	21459	42.4	1
0	21460	42.4	1
0	21461	42.4	0
0	21462	42.4	0
0	21479	42.45	1
0	21480	42.45	1
0	21481	42.45	0
0	21482	42.45	0
0	21495	42.5	1
0	21496	42.5	1
0	21497	42.5	0
0	21498	42.5	0
0	21500	42.5	1
0	21501	42.5	1
0	21502	42.5	0
0	21503	42.5	0
0	21520	42.55	1
0	21521	42.55	1
0	21522	42.55	0
0	21523	42.55	0
0	21550	42.6	1
0	21551	42.6	1
0	21552	42.6	0
0	21553	42.6	0
0	21555	42.6	1
0	21556	42.6	1
0	21557	42.6	0
0	21558	42.6	0
0	21575	42.65	1
0	21576	42.65	1
0	21577	42.65	0
0	21578	42.65	0
0	21591	42.7	1
0	21592	42.7	1
0	21593	42.7	0
0	21594	42.7	0
0	21596	42.7	1
0	21597	42.7	1
0	21598	42.7	0
0	21599	42.7	0
0	21630	42.75	1
0	21631	42.75	1
0	21632	42.75	0
0	21633	42.75	0
0	21646	42.8	1
0	21647	42.8	1
0	21648	42.8	0
0	21649	42.8	0
0	21651	42.8	1
0	21652	42.8	1
0	21653	42.8	0
0	21654	42.8	0
0	21671	42.85	1
0	21672	42.85	1
0	21673	42.85	0
0	21674	42.85	0
0	21687	42.9	1
0	21688	42.9	1
0	21689	42.9	0
0	21690	42.9	0
0	21692	42.9	1
0	21693	42.9	1
0	21694	42.9	0
0	21695	42.9	0
0	21712	42.95	1
0	21713	42.95	1
0	21714	42.95	0
0	21715	42.95	0
0	21728	43	1
0	21729	43	1
0	21730	43	0
0	21731	43	0
0	21733	43	1
0	21734	43	1
0	21735	43	0
0	21736	43	0
0	21753	43.05	1
0	21754	43.05	1
0	21755	43.05	0
0	21756	43.05	0
0	21773	43.1	1
0	21774	43.1	1
0	21775	43.1	0
0	21776	43.1	0
0	21778	43.1	1
0	21779	43.1	1
0	21780	43.1	0
0	21781	43.1	0
0	21816	43.15	1
0	21817	43.15	1
0	21818	43.15	0
0	21819	43.15	0
0	21832	43.2	1
0	21833	43.2	1
0	21834	43.2	0
0	21835	43.2	0
0	21837	43.2	1
0	21838	43.2	1
0	21839	43.2	0
0	21840	43.2	0
0	21857	43.25	1
0	21858	43.25	1
0	21859	43.25	0
0	21860	43.25	0
0	21876	43.3	1
0	21877	43.3	1
0	21878	43.3	0
0	21879	43.3	0
0	21881	43.3	1
0	21882	43.3	1
0	21883	43.3	0
0	21884	43.3	0
0	21901	43.35	1
0	21902	43.35	1
0	21903	43.35	0
0	21904	43.35	0
0	21917	43.4	1
0	21918	43.4	1
0	21919	43.4	0
0	21920	43.4	0
0	21922	43.4	1
0	21923	43.4	1
0	21924	43.4	0
0	21925	43.4	0
0	21942	43.45	1
0	21943	43.45	1
0	21944	43.45	0
0	21945	43.45	0
0	21958	43.5	1
0	21959	43.5	1
0	21960	43.5	0
0	21961	43.5	0
0	21963	43.5	1
0	21964	43.5	1
0	21965	43.5	0
0	21966	43.5	0
0	21983	43.55	1
0	21984	43.55	1
0	21985	43.55	0
0	21986	43.55	0
0	21999	43.6	1
0	22000	43.6	1
0	22001	43.6	0
0	22002	43.6	0
0	22004	43.6	1
0	22005	43.6	1
0	22006	43.6	0
0	22007	43.6	0
0	22024	43.65	1
0	22025	43.65	1
0	22026	43.65	0
0	22027	43.65	0
0	22040	43.7	1
0	22041	43.7	1
0	22042	43.7	0
0	22043	43.7	0
0	22045	43.7	1
0	22046	43.7	1
0	22047	43.7	0
0	22048	43.7	0
0	22065	43.75	1
0	22066	43.75	1
0	22067	43.75	0
0	22068	43.75	0
0	22081	43.8	1
0	22082	43.8	1
0	22083	43.8	0
0	22084	43.8	0
0	22086	43.8	1
0	22087	43.8	1
0	22088	43.8	0
0	22089	43.8	0
0	22106	43.85	1
0	22107	43.85	1
0	22108	43.85	0
0	22109	43.85	0
0	22122	43.9	1
0	22123	43.9	1
0	22124	43.9	0
0	22125	43.9	0
0	22127	43.9	1
0	22128	43.9	1
0	22129	43.9	0
0	22130	43.9	0
0	22147	43.95	1
0	22148	43.95	1
0	22149	43.95	0
0	22150	43.95	0
0	22163	44	1
[...]
0	51781	98.35	1
0	51794	98.4	1
0	51795	98.4	1
0	51796	98.4	1
0	51797	98.4	1
0	51798	98.4	1
0	51799	98.4	1
0	51800	98.4	1
0	51801	98.4	1
0	51822	98.45	1
0	51823	98.45	1
0	51824	98.45	1
0	51825	98.45	1
0	51848	98.5	1
0	51849	98.5	1
0	51850	98.5	1
0	51851	98.5	1
0	51852	98.5	1
0	51853	98.5	1
0	51854	98.5	1
0	51855	98.5	1
0	51890	98.55	1
0	51891	98.55	1
0	51892	98.55	1
0	51893	98.55	1
0	51906	98.6	1
0	51907	98.6	1
0	51908	98.6	1
0	51909	98.6	1
0	51910	98.6	1
0	51911	98.6	1
0	51912	98.6	1
0	51913	98.6	1
0	51948	98.65	1
0	51949	98.65	1
0	51950	98.65	1
0	51951	98.65	1
0	51964	98.7	1
0	51965	98.7	1
0	51966	98.7	1
0	51967	98.7	1
0	51968	98.7	1
0	51969	98.7	1
0	51970	98.7	1
0	51971	98.7	1
0	51992	98.75	1
0	51993	98.75	1
0	51994	98.75	1
0	51995	98.75	1
0	52008	98.8	1
0	52009	98.8	1
0	52010	98.8	1
0	52011	98.8	1
0	52012	98.8	1
0	52013	98.8	1
0	52014	98.8	1
0	52015	98.8	1
0	52036	98.85	1
0	52037	98.85	1
0	52038	98.85	1
0	52039	98.85	1
0	52066	98.9	1
0	52067	98.9	1
0	52068	98.9	1
0	52069	98.9	1
0	52070	98.9	1
0	52071	98.9	1
0	52072	98.9	1
0	52073	98.9	1
0	52094	98.95	1
0	52095	98.95	1
0	52096	98.95	1
0	52097	98.95	1
0	52110	99	1
0	52111	99	1
0	52112	99	1
0	52113	99	1
0	52114	99	1
0	52115	99	1
0	52116	99	1
0	52117	99	1
0	52152	99.05	1
0	52153	99.05	1
0	52154	99.05	1
0	52155	99.05	1
0	52182	99.1	1
0	52183	99.1	1
0	52184	99.1	1
0	52185	99.1	1
0	52186	99.1	1
0	52187	99.1	1
0	52188	99.1	1
0	52189	99.1	1
0	52210	99.15	1
0	52211	99.15	1
0	52212	99.15	1
0	52213	99.15	1
0	52240	99.2	1
0	52241	99.2	1
0	52242	99.2	1
0	52243	99.2	1
0	52244	99.2	1
0	52245	99.2	1
0	52246	99.2	1
0	52247	99.2	1
0	52268	99.25	1
0	52269	99.25	1
0	52270	99.25	1
0	52271	99.25	1
0	52284	99.3	1
0	52285	99.3	1
0	52286	99.3	1
0	52287	99.3	1
0	52288	99.3	1
0	52289	99.3	1
0	52290	99.3	1
0	52291	99.3	1
0	52312	99.35	1
0	52313	99.35	1
0	52314	99.35	1
0	52315	99.35	1
0	52328	99.4	1
0	52329	99.4	1
0	52330	99.4	1
0	52331	99.4	1
0	52332	99.4	1
0	52333	99.4	1
0	52334	99.4	1
0	52335	99.4	1
0	52370	99.45	1
0	52371	99.45	1
0	52372	99.45	1
0	52373	99.45	1
0	52386	99.5	1
0	52387	99.5	1
0	52388	99.5	1
0	52389	99.5	1
0	52390	99.5	1
0	52391	99.5	1
0	52392	99.5	1
0	52393	99.5	1
0	52414	99.55	1
0	52415	99.55	1
0	52416	99.55	1
0	52417	99.55	1
0	52433	99.6	1
0	52434	99.6	1
0	52435	99.6	1
0	52436	99.6	1
0	52437	99.6	1
0	52438	99.6	1
0	52439	99.6	1
0	52440	99.6	1
0	52475	99.65	1
0	52476	99.65	1
0	52477	99.65	1
0	52478	99.65	1
0	52491	99.7	1
0	52492	99.7	1
0	52493	99.7	1
0	52494	99.7	1
0	52495	99.7	1
0	52496	99.7	1
0	52497	99.7	1
0	52498	99.7	1
0	52519	99.75	1
0	52520	99.75	1
0	52521	99.75	1
0	52522	99.75	1
0	52535	99.8	1
0	52536	99.8	1
0	52537	99.8	1
0	52538	99.8	1
0	52539	99.8	1
0	52540	99.8	1
0	52541	99.8	1
0	52542	99.8	1
0	52563	99.85	1
0	52564	99.85	1
0	52565	99.85	1
0	52566	99.85	1
0	52579	99.9	1
0	52580	99.9	1
0	52581	99.9	1
0	52582	99.9	1
0	52583	99.9	1
0	52584	99.9	1
0	52585	99.9	1
0	52586	99.9	1
0	52607	99.95	1
0	52608	99.95	1
0	52609	99.95	1
0	52610	99.95	1
0	52637	100	1
0	52638	100	1
0	52639	100	1
0	52640	100	1
0	52641	100	1
0	52642	100	1
0	52643	100	1
0	52644	100	1
1	29	0.1	-nan
1	31	0.1	-nan
1	33	0.1	-nan
1	35	0.1	-nan
1	467	1.1	-nan
1	468	1.1	-nan
1	469	1.1	-nan
1	470	1.1	-nan
1	1017	2.1	-nan
1	1018	2.1	-nan
1	1019	2.1	-nan
1	1020	2.1	-nan
1	1567	3.1	-nan
1	1568	3.1	-nan
1	1569	3.1	-nan
1	1570	3.1	-nan
1	2113	4.1	-nan
1	2114	4.1	-nan
1	2115	4.1	-nan
1	2116	4.1	-nan
1	2656	5.1	-nan
1	2657	5.1	-nan
1	2658	5.1	-nan
1	2659	5.1	-nan
1	3187	6.1	-nan
1	3188	6.1	-nan
1	3189	6.1	-nan
1	3190	6.1	-nan
1	3853	7.1	-nan
1	3854	7.1	-nan
1	3855	7.1	-nan
1	3856	7.1	-nan
1	4435	8.1	-nan
1	4436	8.1	-nan
1	4437	8.1	-nan
1	4438	8.1	-nan
1	4984	9.1	-nan
1	4985	9.1	-nan
1	4986	9.1	-nan
1	4987	9.1	-nan
1	5557	10.1	-nan
1	5558	10.1	-nan
1	5559	10.1	-nan
1	5560	10.1	-nan
1	6103	11.1	-nan
1	6104	11.1	-nan
1	6105	11.1	-nan
1	6106	11.1	-nan
1	6601	12.1	-nan
1	6602	12.1	-nan
1	6603	12.1	-nan
1	6604	12.1	-nan
1	7183	13.1	-nan
1	7184	13.1	-nan
1	7185	13.1	-nan
1	7186	13.1	-nan
1	7728	14.1	-nan
1	7729	14.1	-nan
1	7730	14.1	-nan
1	7731	14.1	-nan
1	8244	15.1	-nan
1	8245	15.1	-nan
1	8246	15.1	-nan
1	8247	15.1	-nan
1	8816	16.1	-nan
1	8817	16.1	-nan
1	8818	16.1	-nan
1	8819	16.1	-nan
1	9340	17.1	-nan
1	9341	17.1	-nan
1	9342	17.1	-nan
1	9343	17.1	-nan
1	9836	18.1	-nan
1	9837	18.1	-nan
1	9838	18.1	-nan
1	9839	18.1	-nan
1	10366	19.1	-nan
1	10367	19.1	-nan
1	10368	19.1	-nan
1	10369	19.1	-nan
1	10900	20.1	-nan
1	10901	20.1	-nan
1	10902	20.1	-nan
1	10903	20.1	-nan
1	11409	21.1	-nan
1	11410	21.1	-nan
1	11411	21.1	-nan
1	11412	21.1	-nan
1	11894	22.1	-nan
1	11895	22.1	-nan
1	11896	22.1	-nan
1	11897	22.1	-nan
1	12376	23.1	-nan
1	12377	23.1	-nan
1	12378	23.1	-nan
1	12379	23.1	-nan
1	12839	24.1	-nan
1	12840	24.1	-nan
1	12841	24.1	-nan
1	12842	24.1	-nan
1	13261	25.1	-nan
1	13262	25.1	-nan
1	13263	25.1	-nan
1	13264	25.1	-nan
1	13767	26.1	-nan
1	13768	26.1	-nan
1	13769	26.1	-nan
1	13770	26.1	-nan
1	14242	27.1	-nan
1	14243	27.1	-nan
1	14244	27.1	-nan
1	14245	27.1	-nan
1	14714	28.1	-nan
1	14715	28.1	-nan
1	14716	28.1	-nan
1	14717	28.1	-nan
1	15200	29.1	-nan
1	15201	29.1	-nan
1	15202	29.1	-nan
1	15203	29.1	-nan
1	15662	30.1	-nan
1	15663	30.1	-nan
1	15664	30.1	-nan
1	15665	30.1	-nan
1	16106	31.1	-nan
1	16107	31.1	-nan
1	16108	31.1	-nan
1	16109	31.1	-nan
1	16595	32.1	-nan
1	16596	32.1	-nan
1	16597	32.1	-nan
1	16598	32.1	-nan
1	17051	33.1	-nan
1	17052	33.1	-nan
1	17053	33.1	-nan
1	17054	33.1	-nan
1	17542	34.1	-nan
1	17543	34.1	-nan
1	17544	34.1	-nan
1	17545	34.1	-nan
1	18041	35.1	-nan
1	18042	35.1	-nan
1	18043	35.1	-nan
1	18044	35.1	-nan
1	18485	36.1	-nan
1	18486	36.1	-nan
1	18487	36.1	-nan
1	18488	36.1	-nan
1	18944	37.1	-nan
1	18945	37.1	-nan
1	18946	37.1	-nan
1	18947	37.1	-nan
1	19430	38.1	-nan
1	19431	38.1	-nan
1	19432	38.1	-nan
1	19433	38.1	-nan
1	19902	39.1	-nan
1	19903	39.1	-nan
1	19904	39.1	-nan
1	19905	39.1	-nan
1	20389	40.1	-nan
1	20390	40.1	-nan
1	20391	40.1	-nan
1	20392	40.1	-nan
1	20810	41.1	-nan
1	20811	41.1	-nan
1	20812	41.1	-nan
1	20813	41.1	-nan
1	21297	42.1	-nan
1	21298	42.1	-nan
1	21299	42.1	-nan
1	21300	42.1	-nan
1	21769	43.1	-nan
1	21770	43.1	-nan
1	21771	43.1	-nan
1	21772	43.1	-nan
1	22204	44.1	-nan
1	22205	44.1	-nan
1	22206	44.1	-nan
1	22207	44.1	-nan
1	22675	45.1	-nan
1	22676	45.1	-nan
1	22677	45.1	-nan
1	22678	45.1	-nan
1	23161	46.1	-nan
1	23162	46.1	-nan
1	23163	46.1	-nan
1	23164	46.1	-nan
1	23650	47.1	-nan
1	23651	47.1	-nan
1	23652	47.1	-nan
1	23653	47.1	-nan
1	24122	48.1	-nan
1	24123	48.1	-nan
1	24124	48.1	-nan
1	24125	48.1	-nan
1	24594	49.1	-nan
1	24595	49.1	-nan
1	24596	49.1	-nan
1	24597	49.1	-nan
1	25081	50.1	-nan
1	25082	50.1	-nan
1	25083	50.1	-nan
1	25084	50.1	-nan
1	25567	51.1	-nan
1	25568	51.1	-nan
1	25569	51.1	-nan
1	25570	51.1	-nan
1	26056	52.1	-nan
1	26057	52.1	-nan
1	26058	52.1	-nan
1	26059	52.1	-nan
1	26528	53.1	-nan
1	26529	53.1	-nan
1	26530	53.1	-nan
1	26531	53.1	-nan
1	27003	54.1	-nan
1	27004	54.1	-nan
1	27005	54.1	-nan
1	27006	54.1	-nan
1	27422	55.1	-nan
1	27423	55.1	-nan
1	27424	55.1	-nan
1	27425	55.1	-nan
1	27920	56.1	-nan
1	27921	56.1	-nan
1	27922	56.1	-nan
1	27923	56.1	-nan
1	28409	57.1	-nan
1	28410	57.1	-nan
1	28411	57.1	-nan
1	28412	57.1	-nan
1	28902	58.1	-nan
1	28903	58.1	-nan
1	28904	58.1	-nan
1	28905	58.1	-nan
1	29405	59.1	-nan
1	29406	59.1	-nan
1	29407	59.1	-nan
1	29408	59.1	-nan
1	29936	60.1	-nan
1	29937	60.1	-nan
1	29938	60.1	-nan
1	29939	60.1	-nan
1	30467	61.1	-nan
1	30468	61.1	-nan
1	30469	61.1	-nan
1	30470	61.1	-nan
1	31204	62.1	-nan
1	31205	62.1	-nan
1	31206	62.1	-nan
1	31207	62.1	-nan
1	31742	63.1	-nan
1	31743	63.1	-nan
1	31744	63.1	-nan
1	31745	63.1	-nan
1	32441	64.1	-nan
1	32442	64.1	-nan
1	32443	64.1	-nan
1	32444	64.1	-nan
1	33070	65.1	-nan
1	33071	65.1	-nan
1	33072	65.1	-nan
1	33073	65.1	-nan
1	33650	66.1	-nan
1	33651	66.1	-nan
1	33652	66.1	-nan
1	33653	66.1	-nan
1	34234	67.1	-nan
1	34235	67.1	-nan
1	34236	67.1	-nan
1	34237	67.1	-nan
1	34828	68.1	-nan
1	34829	68.1	-nan
1	34830	68.1	-nan
1	34831	68.1	-nan
1	35408	69.1	-nan
1	35409	69.1	-nan
1	35410	69.1	-nan
1	35411	69.1	-nan
1	35980	70.1	-nan
1	35981	70.1	-nan
1	35982	70.1	-nan
1	35983	70.1	-nan
1	36513	71.1	-nan
1	36514	71.1	-nan
1	36515	71.1	-nan
1	36516	71.1	-nan
1	37071	72.1	-nan
1	37072	72.1	-nan
1	37073	72.1	-nan
1	37074	72.1	-nan
1	37655	73.1	-nan
1	37656	73.1	-nan
1	37657	73.1	-nan
1	37658	73.1	-nan
1	38211	74.1	-nan
1	38212	74.1	-nan
1	38213	74.1	-nan
1	38214	74.1	-nan
1	38804	75.1	-nan
1	38805	75.1	-nan
1	38806	75.1	-nan
1	38807	75.1	-nan
1	39377	76.1	-nan
1	39378	76.1	-nan
1	39379	76.1	-nan
1	39380	76.1	-nan
1	39961	77.1	-nan
1	39962	77.1	-nan
1	39963	77.1	-nan
1	39964	77.1	-nan
1	40540	78.1	-nan
1	40541	78.1	-nan
1	40542	78.1	-nan
1	40543	78.1	-nan
1	41124	79.1	-nan
1	41125	79.1	-nan
1	41126	79.1	-nan
1	41127	79.1	-nan
1	41680	80.1	-nan
1	41681	80.1	-nan
1	41682	80.1	-nan
1	41683	80.1	-nan
1	42250	81.1	-nan
1	42251	81.1	-nan
1	42252	81.1	-nan
1	42253	81.1	-nan
1	42813	82.1	-nan
1	42814	82.1	-nan
1	42815	82.1	-nan
1	42816	82.1	-nan
1	43355	83.1	-nan
1	43356	83.1	-nan
1	43357	83.1	-nan
1	43358	83.1	-nan
1	43925	84.1	-nan
1	43926	84.1	-nan
1	43927	84.1	-nan
1	43928	84.1	-nan
1	44495	85.1	-nan
1	44496	85.1	-nan
1	44497	85.1	-nan
1	44498	85.1	-nan
1	45062	86.1	-nan
1	45063	86.1	-nan
1	45064	86.1	-nan
1	45065	86.1	-nan
1	45662	87.1	-nan
1	45663	87.1	-nan
1	45664	87.1	-nan
1	45665	87.1	-nan
1	46246	88.1	-nan
1	46247	88.1	-nan
1	46248	88.1	-nan
1	46249	88.1	-nan
1	46751	89.1	-nan
1	46752	89.1	-nan
1	46753	89.1	-nan
1	46754	89.1	-nan
1	47319	90.1	-nan
1	47320	90.1	-nan
1	47321	90.1	-nan
1	47322	90.1	-nan
2	3513	6.628453385287	141
2	3523	6.633093385287	282
2	3533	6.642293385287	423
2	3543	6.646933385287	564
2	3566	6.656133385287	705
2	3576	6.660773385287	846
2	3586	6.669973385287	987
2	3596	6.674613385287	1128
2	3606	6.683813385287	1269
2	3617	6.697653385287	1410
2	3654	6.702293385287	1551
2	3664	6.711493385287	1692
2	3671	6.716133385287	1833
2	3945	7.178453385287	1974
2	3955	7.183093385287	2115
2	3965	7.192293385287	2256
2	3975	7.196933385287	2397
2	4009	7.210773385287	2538
2	4548	8.278453385287	2679
2	4976	9.078453385287	2820
2	5140	9.378453385287	2961
2	5309	9.628453385287	3102
2	5319	9.642293385287	3243
2	5627	10.178453385287	3384
2	5782	10.478453385287	3525
2	6363	11.578453385287	3666
2	6655	12.128453385287	3807
2	6783	12.328453385287	3948
2	6793	12.342293385287	4089
2	7390	13.428453385287	4230
2	7575	13.778453385287	4371
2	7968	14.528453385287	4512
2	8237	15.078460048103	4653
2	8416	15.378453385287	4794
2	8426	15.392293385287	4935
2	8579	15.628517739545	5076
2	8886	16.178581936183	5217
2	9044	16.478453385287	5358
2	9892	18.128453385287	5499
2	9899	18.142293385287	5640
2	10173	18.678453385287	5781
2	10463	19.228453385287	5922
2	11040	20.328453385287	6063
2	11592	21.428453385287	6204
2	12369	23.078453385287	6345
2	13491	25.528453385287	6486
2	13501	25.542293385287	6627
2	13527	25.556133385287	6768
2	14039	26.628453385287	6909
2	14310	27.178453385287	7050
2	14837	28.278453385287	7191
2	15364	29.378453385287	7332
2	16058	30.978453385287	7473
2	16337	31.528453385287	7614
2	17121	33.178453385287	7755
2	17128	33.192293385287	7896
2	17653	34.278453385287	8037
2	17663	34.292293385287	8178
2	18191	35.378453385287	8319
2	18884	36.978453385287	8460
2	18894	36.992293385287	8601
2	19174	37.528453385287	8742
2	19701	38.628453385287	8883
2	19970	39.178453385287	9024
2	21084	41.628453385287	9165
2	21094	41.642293385287	9306
2	21365	42.178453385287	9447
2	22575	44.878453385287	9588
2	22585	44.892293385287	9729
2	22864	45.428453385287	9870
2	23392	46.528453385287	10011
2	23921	47.628453385287	10152
2	24190	48.178453385287	10293
2	24717	49.278453385287	10434
2	25245	50.378453385287	10575
2	25772	51.478453385287	10716
2	26302	52.578453385287	10857
2	26580	53.128453385287	10998
2	27533	55.278453385287	11139
2	27543	55.292293385287	11280
2	28070	56.378453385287	11421
2	28608	57.478453385287	11562
2	29708	59.628453385287	11703
2	29718	59.642293385287	11844
2	30008	60.178453385287	11985
2	30783	61.578730848859	12126
2	30793	61.592570555743	12267
2	30832	61.606410258025	12408
2	30842	61.620249955707	12549
2	30849	61.634089648796	12690
2	30859	61.647929337297	12831
2	30882	61.661769021217	12972
2	30889	61.675608700564	13113
2	30931	61.703288045575	13254
2	30942	61.717127711259	13395
2	30949	61.730967372412	13536
2	30977	61.772486328811	13677
2	30987	61.786325971973	13818
2	31026	61.800165610676	13959
2	31033	61.814005244937	14100
2	31043	61.827844874775	14241
2	31050	61.841684500209	14382
2	31076	61.855524121258	14523
2	31083	61.869363737943	14664
2	31093	61.883203350288	14805
2	31133	61.910882562042	14946
2	31352	62.328453385287	15087
2	31362	62.342293385287	15228
2	31838	63.178613533619	15369
2	31848	63.192452911945	15510
2	31888	63.220131667722	15651
2	31898	63.233971045256	15792
2	31908	63.247810422609	15933
2	31934	63.261649799822	16074
2	31944	63.275489176934	16215
2	31951	63.289328553986	16356
2	31992	63.303167931018	16497
2	32009	63.317007308068	16638
2	32020	63.344686062379	16779
2	32096	63.428453385287	16920
2	32562	64.228520654388	17061
2	32589	64.256199548553	17202
2	32599	64.270038998252	17343
2	32729	64.478453385287	17484
2	32904	64.77847868458	17625
2	33230	65.328443045827	17766
2	33376	65.578453385287	17907
2	33706	66.128453385287	18048
2	33881	66.428389965495	18189
2	34349	67.228453385287	18330
2	34524	67.528356711056	18471
2	34988	68.328453385287	18612
2	35163	68.628338080006	18753
2	35480	69.178333104807	18894
2	35639	69.428453385287	19035
2	36109	70.278330353062	19176
2	36672	71.378330353062	19317
2	36991	71.928453385287	19458
2	37001	71.942293385287	19599
2	37319	72.478330353062	19740
2	37324	72.478453385287	19881
2	37947	73.578330353062	20022
2	37952	73.578453385287	20163
2	38283	74.128330353062	20304
2	38288	74.128453385287	20445
2	38593	74.678453385287	20586
2	38920	75.228330353062	20727
2	39224	75.778453385287	20868
2	39544	76.328330353062	21009
2	39849	76.878453385287	21150
2	40179	77.428330353062	21291
2	40184	77.428453385287	21432
2	40489	77.978453385287	21573
2	40816	78.528330353062	21714
2	40821	78.528453385287	21855
2	41444	79.628330353062	21996
2	41449	79.628453385287	22137
2	41768	80.178330353062	22278
2	41773	80.178453385287	22419
2	42396	81.278330353062	22560
2	42401	81.278453385287	22701
2	42972	82.378330353062	22842
2	43232	82.878453385287	22983
2	43556	83.428453385287	23124
2	43598	83.478330353062	23265
2	44184	84.528453385287	23406
2	44226	84.578330353062	23547
2	44550	85.128330353062	23688
2	44824	85.628453385287	23829
2	45135	86.178453385287	23970
2	45145	86.192293385287	24111
2	45199	86.228330353062	24252
2	45777	87.278453385287	24393
2	45831	87.328330353062	24534
2	46436	88.428330353062	24675
2	46996	89.528330353062	24816
2	47140	89.728453385287	24957
2	47150	89.742293385287	25098
2	47462	90.278453385287	25239
2	47648	90.628330353062	25380
3	3513	6.628453385287	141
3	3523	6.633093385287	282
3	3533	6.642293385287	423
3	3543	6.646933385287	564
3	3566	6.656133385287	705
3	3576	6.660773385287	846
3	3586	6.669973385287	987
3	3596	6.674613385287	1128
3	3606	6.683813385287	1269
3	3617	6.697653385287	1410
3	3654	6.702293385287	1551
3	3664	6.711493385287	1692
3	3671	6.716133385287	1833
3	3945	7.178453385287	1974
3	3955	7.183093385287	2115
3	3965	7.192293385287	2256
3	3975	7.196933385287	2397
3	4009	7.210773385287	2538
3	4548	8.278453385287	2679
3	4976	9.078453385287	2820
3	5140	9.378453385287	2961
3	5309	9.628453385287	3102
3	5319	9.642293385287	3243
3	5627	10.178453385287	3384
3	5782	10.478453385287	3525
3	6363	11.578453385287	3666
3	6655	12.128453385287	3807
3	6783	12.328453385287	3948
3	6793	12.342293385287	4089
3	7390	13.428453385287	4230
3	7575	13.778453385287	4371
3	7968	14.528453385287	4512
3	8237	15.078460048103	4653
3	8416	15.378453385287	4794
3	8426	15.392293385287	4935
3	8579	15.628517739545	5076
3	8886	16.178581936183	5217
3	9044	16.478453385287	5358
3	9892	18.128453385287	5499
3	9899	18.142293385287	5640
3	10173	18.678453385287	5781
3	10463	19.228453385287	5922
3	11040	20.328453385287	6063
3	11592	21.428453385287	6204
3	12369	23.078453385287	6345
3	13491	25.528453385287	6486
3	13501	25.542293385287	6627
3	13527	25.556133385287	6768
3	14039	26.628453385287	6909
3	14310	27.178453385287	7050
3	14837	28.278453385287	7191
3	15364	29.378453385287	7332
3	16058	30.978453385287	7473
3	16337	31.528453385287	7614
3	17121	33.178453385287	7755
3	17128	33.192293385287	7896
3	17653	34.278453385287	8037
3	17663	34.292293385287	8178
3	18191	35.378453385287	8319
3	18884	36.978453385287	8460
3	18894	36.992293385287	8601
3	19174	37.528453385287	8742
3	19701	38.628453385287	8883
3	19970	39.178453385287	9024
3	21084	41.628453385287	9165
3	21094	41.642293385287	9306
3	21365	42.178453385287	9447
3	22575	44.878453385287	9588
3	22585	44.892293385287	9729
3	22864	45.428453385287	9870
3	23392	46.528453385287	10011
3	23921	47.628453385287	10152
3	24190	48.178453385287	10293
3	24717	49.278453385287	10434
3	25245	50.378453385287	10575
3	25772	51.478453385287	10716
3	26302	52.578453385287	10857
3	26580	53.128453385287	10998
3	27533	55.278453385287	11139
3	27543	55.292293385287	11280
3	28070	56.378453385287	11421
3	28608	57.478453385287	11562
3	29708	59.628453385287	11703
3	29718	59.642293385287	11844
3	30008	60.178453385287	11985
3	30783	61.578730848859	12126
3	30793	61.592570555743	12267
3	30832	61.606410258025	12408
3	30842	61.620249955707	12549
3	30849	61.634089648796	12690
3	30859	61.647929337297	12831
3	30882	61.661769021217	12972
3	30889	61.675608700564	13113
3	30931	61.703288045575	13254
3	30942	61.717127711259	13395
3	30949	61.730967372412	13536
3	30977	61.772486328811	13677
3	30987	61.786325971973	13818
3	31026	61.800165610676	13959
3	31033	61.814005244937	14100
3	31043	61.827844874775	14241
3	31050	61.841684500209	14382
3	31076	61.855524121258	14523
3	31083	61.869363737943	14664
3	31093	61.883203350288	14805
3	31133	61.910882562042	14946
3	31352	62.328453385287	15087
3	31362	62.342293385287	15228
3	31838	63.178613533619	15369
3	31848	63.192452911945	15510
3	31888	63.220131667722	15651
3	31898	63.233971045256	15792
3	31908	63.247810422609	15933
3	31934	63.261649799822	16074
3	31944	63.275489176934	16215
3	31951	63.289328553986	16356
3	31992	63.303167931018	16497
3	32009	63.317007308068	16638
3	32020	63.344686062379	16779
3	32096	63.428453385287	16920
3	32562	64.228520654388	17061
3	32589	64.256199548553	17202
3	32599	64.270038998252	17343
3	32729	64.478453385287	17484
3	32904	64.77847868458	17625
3	33230	65.328443045827	17766
3	33376	65.578453385287	17907
3	33706	66.128453385287	18048
3	33881	66.428389965495	18189
3	34349	67.228453385287	18330
3	34524	67.528356711056	18471
3	34988	68.328453385287	18612
3	35163	68.628338080006	18753
3	35480	69.178333104807	18894
3	35639	69.428453385287	19035
3	36109	70.278330353062	19176
3	36672	71.378330353062	19317
3	36991	71.928453385287	19458
3	37001	71.942293385287	19599
3	37319	72.478330353062	19740
3	37324	72.478453385287	19881
3	37947	73.578330353062	20022
3	37952	73.578453385287	20163
3	38283	74.128330353062	20304
3	38288	74.128453385287	20445
3	38593	74.678453385287	20586
3	38920	75.228330353062	20727
3	39224	75.778453385287	20868
3	39544	76.328330353062	21009
3	39849	76.878453385287	21150
3	40179	77.428330353062	21291
3	40184	77.428453385287	21432
3	40489	77.978453385287	21573
3	40816	78.528330353062	21714
3	40821	78.528453385287	21855
3	41444	79.628330353062	21996
3	41449	79.628453385287	22137
3	41768	80.178330353062	22278
3	41773	80.178453385287	22419
3	42396	81.278330353062	22560
3	42401	81.278453385287	22701
3	42972	82.378330353062	22842
3	43232	82.878453385287	22983
3	43556	83.428453385287	23124
3	43598	83.478330353062	23265
3	44184	84.528453385287	23406
3	44226	84.578330353062	23547
3	44550	85.128330353062	23688
3	44824	85.628453385287	23829
3	45135	86.178453385287	23970
3	45145	86.192293385287	24111
3	45199	86.228330353062	24252
3	45777	87.278453385287	24393
3	45831	87.328330353062	24534
3	46436	88.428330353062	24675
3	46996	89.528330353062	24816
3	47140	89.728453385287	24957
3	47150	89.742293385287	25098
3	47462	90.278453385287	25239
3	47648	90.628330353062	25380

