version 2
run D-0-20191107-18:10:45-16366
attr configname D
attr datetime 20191107-18:10:45
attr experiment D
attr inifile GwSimV1.ini
attr iterationvars ""
attr iterationvarsf ""
attr measurement ""
attr network NetworkTormV2
attr processid 16366
attr repetition 0
attr replication #0
attr resultdir results
attr runnumber 0
attr seedset 0
param **.mobility.traceFile "\"AllPaths/sPaths/D.movements\""
param **.numNodes 5
param **.application.dataGenerationInterval 1s
param **.application.dataSizeInBytes 10
param **.application.ttl 999999s
param **application.nodesThatGen false
param **application.nodesGenMsg "\"\""
param **application.startMultipleMsg false
param **application.numMultipleMsg 100
param **application.hopsListSize 50
param **.application.endGeneratingMsg 149s
param **.routingLayer "\"RoutingLqeGw\""
param **.routing.maximumCacheSize 5000byte
param **.routing.maximumHopCount 25
param **.routing.useTTL false
param **.routing.waitBFsend 0.1
param **.routing.max_age 999999s
param **.routing.gateway_list "\"\""
param **.routing.actual_gateway "\"\""
param **.routing.gwCheckPeriod 5s
param **.neighboring.resetGPeriod 999s
param **.wirelessIfc.wirelessRange 40m
param **.numNodes 2
param **.application.usedRNG 1
param **.application.dataGenerationInterval 1s
param **.application.dataSizeInBytes 10
param **.application.ttl 999999s
param **application.destinationAddr "\"Wf:00:00:00:00:02\""
param **application.destinationBTAddr "\"Bt:00:00:00:00:02\""
param **application.nodesThatGen true
param **application.nodesGenMsg "\"0\""
param **application.startMultipleMsg true
param **application.numMultipleMsg 100
param **application.hopsListSize 50
param **.application.endGeneratingMsg 999999s
param **.routingLayer "\"RoutingLqeGw\""
param **.routing.maximumCacheSize 5000byte
param **.routing.maximumHopCount 25
param **.routing.useTTL false
param **.routing.waitBFsend 0.1
param **.routing.max_age 999999s
param **.routing.gateway_list "\"\""
param **.routing.actual_gateway "\"\""
param **.routing.gwCheckPeriod 5s
param **.neighboring.antiEntropyInterval 500ms
param **.neighboring.maximumRandomBackoffDuration 1s
param **.neighboring.delayPerDataMsg 0.1
param **neighboring.usedRNG 2
param **.neighboring.GWAddr "\"Wf:00:00:00:00:02\""
param **.neighboring.sendWifiFirst true
param **.neighboring.maxLengthGraph 20
param **.neighboring.max_age 999999s
param **.neighboring.max_absent_time 1s
param **.wirelessIfc.wirelessRange 40m
param **.wirelessIfc.neighbourScanInterval 50ms
param **.wirelessIfc.bandwidthBitRate 100000bps
param **.wirelessIfc.wirelessHeaderSize 32byte
param **.wirelessIfc.minSSI -90
param **.wirelessIfc.limitQueueTime 400ms
param **.wirelessIfc.my_limit_rate 0bps
param **.bluetoothIfc.wirelessRange 40m
param **.bluetoothIfc.neighbourScanInterval 100ms
param **.bluetoothIfc.bandwidthBitRate 100000bps
param **.bluetoothIfc.wirelessHeaderSize 16byte
param **.bluetoothIfc.minSSI -90
param **.mobilityType "\"BonnMotionMobility\""
param **.mobility.traceFile "\"paths/Moves2.movements\""
param **.mobility.is3D false
param **.mobility.nodeId -1

vector 0 NetworkTormV2 neighbourhoodSize:vector ETV
attr source neighbourhoodSize
vector 1 NetworkTormV2 deliveryRatio:vector ETV
attr source sum(totalDataBytesReceived)/sum(totalDataBytesReceivableByAllNodes)
vector 2 NetworkTormV2 dataBytesReceivedSum:vector ETV
attr source sum(dataBytesReceived)
vector 3 NetworkTormV2 totalBytesReceivedSum:vector ETV
attr source sum(totalBytesReceived)
0	16	0.05	1
0	17	0.05	1
0	18	0.05	4
0	19	0.05	1
0	20	0.05	1
0	62	0.1	1
0	64	0.1	1
0	66	0.1	4
0	68	0.1	1
0	70	0.1	1
0	71	0.1	1
0	72	0.1	1
0	73	0.1	4
0	74	0.1	1
0	75	0.1	1
0	131	0.15	1
0	132	0.15	1
0	133	0.15	4
0	134	0.15	1
0	135	0.15	1
0	176	0.2	1
0	177	0.2	1
0	178	0.2	4
0	179	0.2	1
0	180	0.2	1
0	181	0.2	1
0	182	0.2	1
0	183	0.2	4
0	184	0.2	1
0	185	0.2	1
0	236	0.25	1
0	237	0.25	1
0	238	0.25	4
0	239	0.25	1
0	240	0.25	1
0	281	0.3	1
0	282	0.3	1
0	283	0.3	4
0	284	0.3	1
0	285	0.3	1
0	286	0.3	1
0	287	0.3	1
0	288	0.3	4
0	289	0.3	1
0	290	0.3	1
0	341	0.35	1
0	342	0.35	1
0	343	0.35	4
0	344	0.35	1
0	345	0.35	1
0	386	0.4	1
0	387	0.4	1
0	388	0.4	4
0	389	0.4	1
0	390	0.4	1
0	391	0.4	1
0	392	0.4	1
0	393	0.4	4
0	394	0.4	1
0	395	0.4	1
0	446	0.45	1
0	447	0.45	1
0	448	0.45	4
0	449	0.45	1
0	450	0.45	1
0	491	0.5	1
0	492	0.5	1
0	493	0.5	4
0	494	0.5	1
0	495	0.5	1
0	496	0.5	1
0	497	0.5	1
0	498	0.5	4
0	499	0.5	1
0	500	0.5	1
0	551	0.55	1
0	552	0.55	1
0	553	0.55	4
0	554	0.55	1
0	555	0.55	1
0	596	0.6	1
0	597	0.6	1
0	598	0.6	4
0	599	0.6	1
0	600	0.6	1
0	601	0.6	1
0	602	0.6	1
0	603	0.6	4
0	604	0.6	1
0	605	0.6	1
0	656	0.65	1
0	657	0.65	1
0	658	0.65	4
0	659	0.65	1
0	660	0.65	1
0	701	0.7	1
0	702	0.7	1
0	703	0.7	4
0	704	0.7	1
0	705	0.7	1
0	706	0.7	1
0	707	0.7	1
0	708	0.7	4
0	709	0.7	1
0	710	0.7	1
0	761	0.75	1
0	762	0.75	1
0	763	0.75	4
0	764	0.75	1
0	765	0.75	1
0	806	0.8	1
0	807	0.8	1
0	808	0.8	4
0	809	0.8	1
0	810	0.8	1
0	811	0.8	1
0	812	0.8	1
0	813	0.8	4
0	814	0.8	1
0	815	0.8	1
0	866	0.85	1
0	867	0.85	1
0	868	0.85	4
0	869	0.85	1
0	870	0.85	1
0	911	0.9	1
0	912	0.9	1
0	913	0.9	4
0	914	0.9	1
0	915	0.9	1
0	916	0.9	1
0	917	0.9	1
0	918	0.9	4
0	919	0.9	1
0	920	0.9	1
0	971	0.95	1
0	972	0.95	1
0	973	0.95	4
0	974	0.95	1
0	975	0.95	1
0	1016	1	1
0	1017	1	1
0	1018	1	4
0	1019	1	1
0	1020	1	1
0	1021	1	1
0	1022	1	1
0	1023	1	4
0	1024	1	1
0	1025	1	1
0	1076	1.05	1
0	1077	1.05	1
0	1078	1.05	4
0	1079	1.05	1
0	1080	1.05	1
0	1126	1.1	1
0	1127	1.1	1
0	1128	1.1	4
0	1129	1.1	1
0	1130	1.1	1
0	1131	1.1	1
0	1132	1.1	1
0	1133	1.1	4
0	1134	1.1	1
0	1135	1.1	1
0	1249	1.15	1
0	1250	1.15	1
0	1251	1.15	4
0	1252	1.15	1
0	1253	1.15	1
0	1318	1.2	1
0	1319	1.2	1
0	1320	1.2	4
0	1321	1.2	1
0	1322	1.2	1
0	1323	1.2	1
0	1324	1.2	1
0	1325	1.2	4
0	1326	1.2	1
0	1327	1.2	1
0	1378	1.25	1
0	1379	1.25	1
0	1380	1.25	4
0	1381	1.25	1
0	1382	1.25	1
0	1423	1.3	1
0	1424	1.3	1
0	1425	1.3	4
0	1426	1.3	1
0	1427	1.3	1
0	1428	1.3	1
0	1429	1.3	1
0	1430	1.3	4
0	1431	1.3	1
0	1432	1.3	1
0	1483	1.35	1
0	1484	1.35	1
0	1485	1.35	4
0	1486	1.35	1
0	1487	1.35	1
0	1528	1.4	1
0	1529	1.4	1
0	1530	1.4	4
0	1531	1.4	1
0	1532	1.4	1
0	1533	1.4	1
0	1534	1.4	1
0	1535	1.4	4
0	1536	1.4	1
0	1537	1.4	1
0	1588	1.45	1
0	1589	1.45	1
0	1590	1.45	4
0	1591	1.45	1
0	1592	1.45	1
0	1633	1.5	1
0	1634	1.5	1
0	1635	1.5	4
0	1636	1.5	1
0	1637	1.5	1
0	1638	1.5	1
0	1639	1.5	1
0	1640	1.5	4
0	1641	1.5	1
0	1642	1.5	1
0	1693	1.55	1
0	1694	1.55	1
0	1695	1.55	4
0	1696	1.55	1
0	1697	1.55	1
0	1738	1.6	1
0	1739	1.6	1
0	1740	1.6	4
0	1741	1.6	1
0	1742	1.6	1
0	1743	1.6	1
0	1744	1.6	1
0	1745	1.6	4
0	1746	1.6	1
0	1747	1.6	1
0	1798	1.65	1
0	1799	1.65	1
0	1800	1.65	4
0	1801	1.65	1
0	1802	1.65	1
0	1888	1.7	1
0	1889	1.7	1
0	1890	1.7	4
0	1891	1.7	1
0	1892	1.7	1
0	1893	1.7	1
0	1894	1.7	1
0	1895	1.7	4
0	1896	1.7	1
0	1897	1.7	1
0	1948	1.75	1
0	1949	1.75	1
0	1950	1.75	4
0	1951	1.75	1
0	1952	1.75	1
0	1993	1.8	1
0	1994	1.8	1
0	1995	1.8	4
0	1996	1.8	1
0	1997	1.8	1
0	1998	1.8	1
0	1999	1.8	1
0	2000	1.8	4
0	2001	1.8	1
0	2002	1.8	1
0	2081	1.85	1
0	2082	1.85	1
0	2083	1.85	4
0	2084	1.85	1
0	2085	1.85	1
0	2126	1.9	1
0	2127	1.9	1
0	2128	1.9	4
0	2129	1.9	1
0	2130	1.9	1
0	2131	1.9	1
0	2132	1.9	1
0	2133	1.9	4
0	2134	1.9	1
0	2135	1.9	1
0	2186	1.95	1
0	2187	1.95	1
0	2188	1.95	4
0	2189	1.95	1
0	2190	1.95	1
0	2231	2	1
0	2232	2	1
0	2233	2	4
0	2234	2	1
0	2235	2	1
0	2236	2	1
0	2237	2	1
0	2238	2	4
0	2239	2	1
0	2240	2	1
0	2291	2.05	1
0	2292	2.05	1
0	2293	2.05	4
0	2294	2.05	1
0	2295	2.05	1
0	2341	2.1	1
0	2342	2.1	1
0	2343	2.1	4
0	2344	2.1	1
0	2345	2.1	1
0	2346	2.1	1
0	2347	2.1	1
0	2348	2.1	4
0	2349	2.1	1
0	2350	2.1	1
0	2406	2.15	1
0	2407	2.15	1
0	2408	2.15	4
0	2409	2.15	1
0	2410	2.15	1
0	2451	2.2	1
0	2452	2.2	1
0	2453	2.2	4
0	2454	2.2	1
0	2455	2.2	1
0	2456	2.2	1
0	2457	2.2	1
0	2458	2.2	4
0	2459	2.2	1
0	2460	2.2	1
0	2534	2.25	1
0	2535	2.25	1
0	2536	2.25	4
0	2537	2.25	1
0	2538	2.25	1
0	2579	2.3	1
0	2580	2.3	1
0	2581	2.3	4
0	2582	2.3	1
0	2583	2.3	1
0	2584	2.3	1
0	2585	2.3	1
0	2586	2.3	4
0	2587	2.3	1
0	2588	2.3	1
0	2639	2.35	1
0	2640	2.35	1
0	2641	2.35	4
0	2642	2.35	1
0	2643	2.35	1
0	2689	2.4	1
0	2690	2.4	1
0	2691	2.4	4
0	2692	2.4	1
0	2693	2.4	1
0	2694	2.4	1
0	2695	2.4	1
0	2696	2.4	4
0	2697	2.4	1
0	2698	2.4	1
0	2749	2.45	1
0	2750	2.45	1
0	2751	2.45	4
0	2752	2.45	1
0	2753	2.45	1
0	2794	2.5	1
0	2795	2.5	1
0	2796	2.5	4
0	2797	2.5	1
0	2798	2.5	1
0	2799	2.5	1
0	2800	2.5	1
0	2801	2.5	4
0	2802	2.5	1
0	2803	2.5	1
0	2854	2.55	1
0	2855	2.55	1
0	2856	2.55	4
0	2857	2.55	1
0	2858	2.55	1
0	2899	2.6	1
0	2900	2.6	1
0	2901	2.6	4
0	2902	2.6	1
0	2903	2.6	1
0	2904	2.6	1
0	2905	2.6	1
0	2906	2.6	4
0	2907	2.6	1
0	2908	2.6	1
0	2959	2.65	1
0	2960	2.65	1
0	2961	2.65	4
0	2962	2.65	1
0	2963	2.65	1
0	3004	2.7	1
0	3005	2.7	1
0	3006	2.7	4
0	3007	2.7	1
0	3008	2.7	1
0	3009	2.7	1
0	3010	2.7	1
0	3011	2.7	4
0	3012	2.7	1
0	3013	2.7	1
0	3097	2.75	1
0	3098	2.75	1
0	3099	2.75	4
0	3100	2.75	1
0	3101	2.75	1
0	3142	2.8	1
0	3143	2.8	1
0	3144	2.8	4
0	3145	2.8	1
0	3146	2.8	1
0	3147	2.8	1
0	3148	2.8	1
0	3149	2.8	4
0	3150	2.8	1
0	3151	2.8	1
0	3202	2.85	1
0	3203	2.85	1
0	3204	2.85	4
0	3205	2.85	1
0	3206	2.85	1
0	3247	2.9	1
0	3248	2.9	1
0	3249	2.9	4
0	3250	2.9	1
0	3251	2.9	1
0	3252	2.9	1
0	3253	2.9	1
0	3254	2.9	4
0	3255	2.9	1
0	3256	2.9	1
0	3307	2.95	1
0	3308	2.95	1
0	3309	2.95	4
0	3310	2.95	1
0	3311	2.95	1
0	3352	3	1
0	3353	3	1
0	3354	3	4
0	3355	3	1
0	3356	3	1
0	3357	3	1
0	3358	3	1
0	3359	3	4
0	3360	3	1
0	3361	3	1
0	3412	3.05	1
0	3413	3.05	1
0	3414	3.05	4
0	3415	3.05	1
0	3416	3.05	1
0	3462	3.1	1
0	3463	3.1	1
0	3464	3.1	4
0	3465	3.1	1
0	3466	3.1	1
0	3467	3.1	1
0	3468	3.1	1
0	3469	3.1	4
0	3470	3.1	1
0	3471	3.1	1
0	3527	3.15	1
0	3528	3.15	1
0	3529	3.15	4
0	3530	3.15	1
0	3531	3.15	1
0	3572	3.2	1
0	3573	3.2	1
0	3574	3.2	4
0	3575	3.2	1
0	3576	3.2	1
0	3577	3.2	1
0	3578	3.2	1
0	3579	3.2	4
0	3580	3.2	1
0	3581	3.2	1
0	3632	3.25	1
0	3633	3.25	1
0	3634	3.25	4
0	3635	3.25	1
0	3636	3.25	1
0	3710	3.3	1
0	3711	3.3	1
0	3712	3.3	4
0	3713	3.3	1
0	3714	3.3	1
0	3715	3.3	1
0	3716	3.3	1
0	3717	3.3	4
0	3718	3.3	1
0	3719	3.3	1
0	3770	3.35	1
0	3771	3.35	1
0	3772	3.35	4
0	3773	3.35	1
0	3774	3.35	1
0	3815	3.4	1
0	3816	3.4	1
0	3817	3.4	4
0	3818	3.4	1
0	3819	3.4	1
0	3820	3.4	1
0	3821	3.4	1
0	3822	3.4	4
0	3823	3.4	1
0	3824	3.4	1
0	3921	3.45	1
0	3922	3.45	1
0	3923	3.45	4
0	3924	3.45	1
0	3925	3.45	1
0	3966	3.5	1
0	3967	3.5	1
0	3968	3.5	4
0	3969	3.5	1
0	3970	3.5	1
0	3971	3.5	1
0	3972	3.5	1
0	3973	3.5	4
0	3974	3.5	1
0	3975	3.5	1
0	4026	3.55	1
0	4027	3.55	1
0	4028	3.55	4
0	4029	3.55	1
0	4030	3.55	1
0	4071	3.6	1
0	4072	3.6	1
0	4073	3.6	4
0	4074	3.6	1
0	4075	3.6	1
0	4076	3.6	1
0	4077	3.6	1
0	4078	3.6	4
0	4079	3.6	1
0	4080	3.6	1
0	4131	3.65	1
0	4132	3.65	1
0	4133	3.65	4
0	4134	3.65	1
0	4135	3.65	1
0	4176	3.7	1
0	4177	3.7	1
0	4178	3.7	4
0	4179	3.7	1
0	4180	3.7	1
0	4181	3.7	1
0	4182	3.7	1
0	4183	3.7	4
0	4184	3.7	1
0	4185	3.7	1
0	4236	3.75	1
0	4237	3.75	1
0	4238	3.75	4
0	4239	3.75	1
0	4240	3.75	1
0	4281	3.8	1
0	4282	3.8	1
0	4283	3.8	4
0	4284	3.8	1
0	4285	3.8	1
0	4286	3.8	1
0	4287	3.8	1
0	4288	3.8	4
0	4289	3.8	1
0	4290	3.8	1
0	4356	3.85	1
0	4357	3.85	1
0	4358	3.85	4
0	4359	3.85	1
0	4360	3.85	1
0	4401	3.9	1
0	4402	3.9	1
0	4403	3.9	4
0	4404	3.9	1
0	4405	3.9	1
0	4406	3.9	1
0	4407	3.9	1
0	4408	3.9	4
0	4409	3.9	1
0	4410	3.9	1
0	4461	3.95	1
0	4462	3.95	1
0	4463	3.95	4
0	4464	3.95	1
0	4465	3.95	1
0	4529	4	1
0	4530	4	1
0	4531	4	4
0	4532	4	1
0	4533	4	1
0	4534	4	1
0	4535	4	1
0	4536	4	4
0	4537	4	1
0	4538	4	1
0	4589	4.05	1
0	4590	4.05	1
0	4591	4.05	4
0	4592	4.05	1
0	4593	4.05	1
0	4639	4.1	1
0	4640	4.1	1
0	4641	4.1	4
0	4642	4.1	1
0	4643	4.1	1
0	4644	4.1	1
0	4645	4.1	1
0	4646	4.1	4
0	4647	4.1	1
0	4648	4.1	1
0	4704	4.15	1
0	4705	4.15	1
0	4706	4.15	4
0	4707	4.15	1
0	4708	4.15	1
0	4749	4.2	1
0	4750	4.2	1
0	4751	4.2	4
0	4752	4.2	1
0	4753	4.2	1
0	4754	4.2	1
0	4755	4.2	1
0	4756	4.2	4
0	4757	4.2	1
0	4758	4.2	1
0	4809	4.25	1
0	4810	4.25	1
0	4811	4.25	4
0	4812	4.25	1
0	4813	4.25	1
0	4854	4.3	1
0	4855	4.3	1
0	4856	4.3	4
0	4857	4.3	1
0	4858	4.3	1
0	4859	4.3	1
0	4860	4.3	1
0	4861	4.3	4
0	4862	4.3	1
0	4863	4.3	1
0	4937	4.35	1
0	4938	4.35	1
0	4939	4.35	4
0	4940	4.35	1
0	4941	4.35	1
0	4987	4.4	1
0	4988	4.4	1
0	4989	4.4	4
0	4990	4.4	1
0	4991	4.4	1
0	4992	4.4	1
0	4993	4.4	1
0	4994	4.4	4
0	4995	4.4	1
0	4996	4.4	1
0	5047	4.45	1
0	5048	4.45	1
0	5049	4.45	4
0	5050	4.45	1
0	5051	4.45	1
0	5115	4.5	1
0	5116	4.5	1
0	5117	4.5	4
0	5118	4.5	1
0	5119	4.5	1
0	5120	4.5	1
0	5121	4.5	1
0	5122	4.5	4
0	5123	4.5	1
0	5124	4.5	1
0	5175	4.55	1
0	5176	4.55	1
0	5177	4.55	4
0	5178	4.55	1
0	5179	4.55	1
0	5220	4.6	1
0	5221	4.6	1
0	5222	4.6	4
0	5223	4.6	1
0	5224	4.6	1
0	5225	4.6	1
0	5226	4.6	1
0	5227	4.6	4
0	5228	4.6	1
0	5229	4.6	1
0	5280	4.65	1
0	5281	4.65	1
0	5282	4.65	4
0	5283	4.65	1
0	5284	4.65	1
0	5325	4.7	1
0	5326	4.7	1
0	5327	4.7	4
0	5328	4.7	1
0	5329	4.7	1
0	5330	4.7	1
0	5331	4.7	1
0	5332	4.7	4
0	5333	4.7	1
0	5334	4.7	1
0	5385	4.75	1
0	5386	4.75	1
0	5387	4.75	4
0	5388	4.75	1
0	5389	4.75	1
0	5430	4.8	1
0	5431	4.8	1
0	5432	4.8	4
0	5433	4.8	1
0	5434	4.8	1
0	5435	4.8	1
0	5436	4.8	1
0	5437	4.8	4
0	5438	4.8	1
0	5439	4.8	1
0	5490	4.85	1
0	5491	4.85	1
0	5492	4.85	4
0	5493	4.85	1
0	5494	4.85	1
0	5540	4.9	1
0	5541	4.9	1
0	5542	4.9	4
0	5543	4.9	1
0	5544	4.9	1
0	5545	4.9	1
0	5546	4.9	1
0	5547	4.9	4
0	5548	4.9	1
0	5549	4.9	1
0	5600	4.95	1
0	5601	4.95	1
0	5602	4.95	4
0	5603	4.95	1
0	5604	4.95	1
0	5678	5	1
0	5679	5	1
0	5680	5	4
0	5681	5	1
0	5682	5	1
0	5683	5	1
0	5684	5	1
0	5685	5	4
0	5686	5	1
0	5687	5	1
0	5738	5.05	1
0	5739	5.05	1
0	5740	5.05	4
0	5741	5.05	1
0	5742	5.05	1
0	5788	5.1	1
0	5789	5.1	1
0	5790	5.1	4
0	5791	5.1	1
0	5792	5.1	1
0	5793	5.1	1
0	5794	5.1	1
0	5795	5.1	4
0	5796	5.1	1
0	5797	5.1	1
0	5870	5.15	1
0	5871	5.15	1
0	5872	5.15	4
0	5873	5.15	1
0	5874	5.15	1
0	5915	5.2	1
0	5916	5.2	1
0	5917	5.2	4
0	5918	5.2	1
0	5919	5.2	1
0	5920	5.2	1
0	5921	5.2	1
0	5922	5.2	4
0	5923	5.2	1
0	5924	5.2	1
0	5975	5.25	1
0	5976	5.25	1
0	5977	5.25	4
0	5978	5.25	1
0	5979	5.25	1
0	6020	5.3	1
0	6021	5.3	1
0	6022	5.3	4
0	6023	5.3	1
0	6024	5.3	1
0	6025	5.3	1
0	6026	5.3	1
0	6027	5.3	4
0	6028	5.3	1
0	6029	5.3	1
0	6080	5.35	1
0	6081	5.35	1
0	6082	5.35	4
0	6083	5.35	1
0	6084	5.35	1
0	6125	5.4	1
0	6126	5.4	1
0	6127	5.4	4
0	6128	5.4	1
0	6129	5.4	1
0	6130	5.4	1
0	6131	5.4	1
0	6132	5.4	4
0	6133	5.4	1
0	6134	5.4	1
0	6208	5.45	1
0	6209	5.45	1
0	6210	5.45	4
0	6211	5.45	1
0	6212	5.45	1
0	6253	5.5	1
0	6254	5.5	1
0	6255	5.5	4
0	6256	5.5	1
0	6257	5.5	1
0	6258	5.5	1
0	6259	5.5	1
0	6260	5.5	4
0	6261	5.5	1
0	6262	5.5	1
0	6323	5.55	1
0	6324	5.55	1
0	6325	5.55	4
0	6326	5.55	1
0	6327	5.55	1
0	6385	5.6	1
0	6386	5.6	1
0	6387	5.6	4
0	6388	5.6	1
0	6389	5.6	1
0	6390	5.6	1
0	6391	5.6	1
0	6392	5.6	4
0	6393	5.6	1
0	6394	5.6	1
0	6445	5.65	1
0	6446	5.65	1
0	6447	5.65	4
0	6448	5.65	1
0	6449	5.65	1
0	6490	5.7	1
0	6491	5.7	1
0	6492	5.7	4
0	6493	5.7	1
0	6494	5.7	1
0	6495	5.7	1
0	6496	5.7	1
0	6497	5.7	4
0	6498	5.7	1
0	6499	5.7	1
0	6550	5.75	1
0	6551	5.75	1
0	6552	5.75	4
0	6553	5.75	1
0	6554	5.75	1
0	6595	5.8	1
0	6596	5.8	1
0	6597	5.8	4
0	6598	5.8	1
0	6599	5.8	1
0	6600	5.8	1
0	6601	5.8	1
0	6602	5.8	4
0	6603	5.8	1
0	6604	5.8	1
0	6655	5.85	1
0	6656	5.85	1
0	6657	5.85	4
0	6658	5.85	1
0	6659	5.85	1
0	6700	5.9	1
0	6701	5.9	1
0	6702	5.9	4
0	6703	5.9	1
0	6704	5.9	1
0	6705	5.9	1
0	6706	5.9	1
0	6707	5.9	4
0	6708	5.9	1
0	6709	5.9	1
0	6760	5.95	1
0	6761	5.95	1
0	6762	5.95	4
0	6763	5.95	1
0	6764	5.95	1
0	6820	6	1
0	6821	6	1
0	6822	6	4
0	6823	6	1
0	6824	6	1
0	6825	6	1
0	6826	6	1
0	6827	6	4
0	6828	6	1
0	6829	6	1
0	6880	6.05	1
0	6881	6.05	1
0	6882	6.05	4
0	6883	6.05	1
0	6884	6.05	1
0	6935	6.1	1
0	6936	6.1	1
0	6937	6.1	4
0	6938	6.1	1
0	6939	6.1	1
0	6940	6.1	1
0	6941	6.1	1
0	6942	6.1	4
0	6943	6.1	1
0	6944	6.1	1
0	7000	6.15	1
0	7001	6.15	1
0	7002	6.15	4
0	7003	6.15	1
0	7004	6.15	1
0	7045	6.2	1
0	7046	6.2	1
0	7047	6.2	4
0	7048	6.2	1
0	7049	6.2	1
0	7050	6.2	1
0	7051	6.2	1
0	7052	6.2	4
0	7053	6.2	1
0	7054	6.2	1
0	7105	6.25	1
0	7106	6.25	1
0	7107	6.25	4
0	7108	6.25	1
0	7109	6.25	1
0	7150	6.3	1
0	7151	6.3	1
0	7152	6.3	4
0	7153	6.3	1
0	7154	6.3	1
0	7155	6.3	1
0	7156	6.3	1
0	7157	6.3	4
0	7158	6.3	1
0	7159	6.3	1
0	7210	6.35	1
0	7211	6.35	1
0	7212	6.35	4
0	7213	6.35	1
0	7214	6.35	1
0	7255	6.4	1
0	7256	6.4	1
0	7257	6.4	4
0	7258	6.4	1
0	7259	6.4	1
0	7260	6.4	1
0	7261	6.4	1
0	7262	6.4	4
0	7263	6.4	1
0	7264	6.4	1
0	7315	6.45	1
0	7316	6.45	1
0	7317	6.45	4
0	7318	6.45	1
0	7319	6.45	1
0	7365	6.5	1
0	7366	6.5	1
0	7367	6.5	4
0	7368	6.5	1
0	7369	6.5	1
0	7370	6.5	1
0	7371	6.5	1
0	7372	6.5	4
0	7373	6.5	1
0	7374	6.5	1
0	7425	6.55	1
0	7426	6.55	1
0	7427	6.55	4
0	7428	6.55	1
0	7429	6.55	1
0	7470	6.6	1
0	7471	6.6	1
0	7472	6.6	4
0	7473	6.6	1
0	7474	6.6	1
0	7475	6.6	1
0	7476	6.6	1
0	7477	6.6	4
0	7478	6.6	1
0	7479	6.6	1
0	7530	6.65	1
0	7531	6.65	1
0	7532	6.65	4
0	7533	6.65	1
0	7534	6.65	1
0	7575	6.7	1
0	7576	6.7	1
0	7577	6.7	4
0	7578	6.7	1
0	7579	6.7	1
0	7580	6.7	1
0	7581	6.7	1
0	7582	6.7	4
0	7583	6.7	1
0	7584	6.7	1
0	7658	6.75	1
0	7659	6.75	1
0	7660	6.75	4
0	7661	6.75	1
0	7662	6.75	1
0	7703	6.8	1
0	7704	6.8	1
0	7705	6.8	4
0	7706	6.8	1
0	7707	6.8	1
0	7708	6.8	1
0	7709	6.8	1
0	7710	6.8	4
0	7711	6.8	1
0	7712	6.8	1
0	7763	6.85	1
0	7764	6.85	1
0	7765	6.85	4
0	7766	6.85	1
0	7767	6.85	1
0	7813	6.9	1
0	7814	6.9	1
0	7815	6.9	4
0	7816	6.9	1
0	7817	6.9	1
0	7818	6.9	1
0	7819	6.9	1
0	7820	6.9	4
0	7821	6.9	1
0	7822	6.9	1
0	7873	6.95	1
0	7874	6.95	1
0	7875	6.95	4
0	7876	6.95	1
0	7877	6.95	1
0	7923	7	1
0	7924	7	1
0	7925	7	4
0	7926	7	1
0	7927	7	1
0	7928	7	1
0	7929	7	1
0	7930	7	4
0	7931	7	1
0	7932	7	1
0	7983	7.05	1
0	7984	7.05	1
0	7985	7.05	4
0	7986	7.05	1
0	7987	7.05	1
0	8033	7.1	1
0	8034	7.1	1
0	8035	7.1	4
0	8036	7.1	1
0	8037	7.1	1
0	8038	7.1	1
0	8039	7.1	1
0	8040	7.1	4
0	8041	7.1	1
0	8042	7.1	1
0	8121	7.15	1
0	8122	7.15	1
0	8123	7.15	4
0	8124	7.15	1
0	8125	7.15	1
0	8189	7.2	1
0	8190	7.2	1
0	8191	7.2	4
0	8192	7.2	1
0	8193	7.2	1
0	8194	7.2	1
0	8195	7.2	1
0	8196	7.2	4
0	8197	7.2	1
0	8198	7.2	1
0	8249	7.25	1
0	8250	7.25	1
0	8251	7.25	4
0	8252	7.25	1
0	8253	7.25	1
0	8317	7.3	1
0	8318	7.3	1
0	8319	7.3	4
0	8320	7.3	1
0	8321	7.3	1
0	8322	7.3	1
0	8323	7.3	1
0	8324	7.3	4
0	8325	7.3	1
0	8326	7.3	1
0	8400	7.35	1
0	8401	7.35	1
0	8402	7.35	4
0	8403	7.35	1
0	8404	7.35	1
0	8445	7.4	1
0	8446	7.4	1
0	8447	7.4	4
0	8448	7.4	1
0	8449	7.4	1
0	8450	7.4	1
0	8451	7.4	1
0	8452	7.4	4
0	8453	7.4	1
0	8454	7.4	1
0	8505	7.45	1
0	8506	7.45	1
0	8507	7.45	4
0	8508	7.45	1
0	8509	7.45	1
0	8550	7.5	1
0	8551	7.5	1
0	8552	7.5	4
0	8553	7.5	1
0	8554	7.5	1
0	8555	7.5	1
0	8556	7.5	1
0	8557	7.5	4
0	8558	7.5	1
0	8559	7.5	1
0	8610	7.55	1
0	8611	7.55	1
0	8612	7.55	4
0	8613	7.55	1
0	8614	7.55	1
0	8655	7.6	1
0	8656	7.6	1
0	8657	7.6	4
0	8658	7.6	1
0	8659	7.6	1
0	8660	7.6	1
0	8661	7.6	1
0	8662	7.6	4
0	8663	7.6	1
0	8664	7.6	1
0	8715	7.65	1
0	8716	7.65	1
0	8717	7.65	4
0	8718	7.65	1
0	8719	7.65	1
0	8770	7.7	1
0	8771	7.7	1
0	8772	7.7	4
0	8773	7.7	1
0	8774	7.7	1
0	8775	7.7	1
0	8776	7.7	1
0	8777	7.7	4
0	8778	7.7	1
0	8779	7.7	1
0	8853	7.75	1
0	8854	7.75	1
0	8855	7.75	4
0	8856	7.75	1
0	8857	7.75	1
0	8898	7.8	1
0	8899	7.8	1
0	8900	7.8	4
0	8901	7.8	1
0	8902	7.8	1
0	8903	7.8	1
0	8904	7.8	1
0	8905	7.8	4
0	8906	7.8	1
0	8907	7.8	1
0	8958	7.85	1
0	8959	7.85	1
0	8960	7.85	4
0	8961	7.85	1
0	8962	7.85	1
0	9008	7.9	1
0	9009	7.9	1
0	9010	7.9	4
0	9011	7.9	1
0	9012	7.9	1
0	9013	7.9	1
0	9014	7.9	1
0	9015	7.9	4
0	9016	7.9	1
0	9017	7.9	1
0	9068	7.95	1
0	9069	7.95	1
0	9070	7.95	4
0	9071	7.95	1
0	9072	7.95	1
0	9118	8	1
0	9119	8	1
0	9120	8	4
0	9121	8	1
0	9122	8	1
0	9123	8	1
0	9124	8	1
0	9125	8	4
0	9126	8	1
0	9127	8	1
0	9178	8.05	1
0	9179	8.05	1
0	9180	8.05	4
0	9181	8.05	1
0	9182	8.05	1
0	9245	8.1	1
0	9246	8.1	1
0	9247	8.1	4
0	9248	8.1	1
0	9249	8.1	1
0	9250	8.1	1
0	9251	8.1	1
0	9252	8.1	4
0	9253	8.1	1
0	9254	8.1	1
0	9310	8.15	1
0	9311	8.15	1
0	9312	8.15	4
0	9313	8.15	1
0	9314	8.15	1
0	9355	8.2	1
0	9356	8.2	1
0	9357	8.2	4
0	9358	8.2	1
0	9359	8.2	1
0	9360	8.2	1
0	9361	8.2	1
0	9362	8.2	4
0	9363	8.2	1
0	9364	8.2	1
0	9438	8.25	1
0	9439	8.25	1
0	9440	8.25	4
0	9441	8.25	1
0	9442	8.25	1
0	9483	8.3	1
0	9484	8.3	1
0	9485	8.3	4
0	9486	8.3	1
0	9487	8.3	1
0	9488	8.3	1
0	9489	8.3	1
0	9490	8.3	4
0	9491	8.3	1
0	9492	8.3	1
0	9548	8.35	1
0	9549	8.35	1
0	9550	8.35	4
0	9551	8.35	1
0	9552	8.35	1
0	9593	8.4	1
0	9594	8.4	1
0	9595	8.4	4
0	9596	8.4	1
0	9597	8.4	1
0	9598	8.4	1
0	9599	8.4	1
0	9600	8.4	4
0	9601	8.4	1
0	9602	8.4	1
0	9670	8.45	1
0	9671	8.45	1
0	9672	8.45	4
0	9673	8.45	1
0	9674	8.45	1
0	9715	8.5	1
0	9716	8.5	1
0	9717	8.5	4
0	9718	8.5	1
0	9719	8.5	1
0	9720	8.5	1
0	9721	8.5	1
0	9722	8.5	4
0	9723	8.5	1
0	9724	8.5	1
0	9775	8.55	1
0	9776	8.55	1
0	9777	8.55	4
0	9778	8.55	1
0	9779	8.55	1
0	9820	8.6	1
0	9821	8.6	1
0	9822	8.6	4
0	9823	8.6	1
0	9824	8.6	1
0	9825	8.6	1
0	9826	8.6	1
0	9827	8.6	4
0	9828	8.6	1
0	9829	8.6	1
0	9885	8.65	1
0	9886	8.65	1
0	9887	8.65	4
0	9888	8.65	1
0	9889	8.65	1
0	9930	8.7	1
0	9931	8.7	1
0	9932	8.7	4
0	9933	8.7	1
0	9934	8.7	1
0	9935	8.7	1
0	9936	8.7	1
0	9937	8.7	4
0	9938	8.7	1
0	9939	8.7	1
0	9990	8.75	1
0	9991	8.75	1
0	9992	8.75	4
0	9993	8.75	1
0	9994	8.75	1
0	10035	8.8	1
0	10036	8.8	1
0	10037	8.8	4
0	10038	8.8	1
0	10039	8.8	1
0	10040	8.8	1
0	10041	8.8	1
0	10042	8.8	4
0	10043	8.8	1
0	10044	8.8	1
0	10095	8.85	1
0	10096	8.85	1
0	10097	8.85	4
0	10098	8.85	1
0	10099	8.85	1
0	10150	8.9	1
0	10151	8.9	1
0	10152	8.9	4
0	10153	8.9	1
0	10154	8.9	1
0	10155	8.9	1
0	10156	8.9	1
0	10157	8.9	4
0	10158	8.9	1
0	10159	8.9	1
0	10210	8.95	1
0	10211	8.95	1
0	10212	8.95	4
0	10213	8.95	1
0	10214	8.95	1
0	10260	9	1
0	10261	9	1
0	10262	9	4
0	10263	9	1
0	10264	9	1
0	10265	9	1
0	10266	9	1
0	10267	9	4
0	10268	9	1
0	10269	9	1
0	10320	9.05	1
0	10321	9.05	1
0	10322	9.05	4
0	10323	9.05	1
0	10324	9.05	1
0	10370	9.1	1
0	10371	9.1	1
0	10372	9.1	4
0	10373	9.1	1
0	10374	9.1	1
0	10375	9.1	1
0	10376	9.1	1
0	10377	9.1	4
0	10378	9.1	1
0	10379	9.1	1
0	10435	9.15	1
0	10436	9.15	1
0	10437	9.15	4
0	10438	9.15	1
0	10439	9.15	1
0	10480	9.2	1
0	10481	9.2	1
0	10482	9.2	4
0	10483	9.2	1
0	10484	9.2	1
0	10485	9.2	1
0	10486	9.2	1
0	10487	9.2	4
0	10488	9.2	1
0	10489	9.2	1
0	10563	9.25	1
0	10564	9.25	1
0	10565	9.25	4
0	10566	9.25	1
0	10567	9.25	1
0	10608	9.3	1
0	10609	9.3	1
0	10610	9.3	4
0	10611	9.3	1
0	10612	9.3	1
0	10613	9.3	1
0	10614	9.3	1
0	10615	9.3	4
0	10616	9.3	1
0	10617	9.3	1
0	10685	9.35	1
0	10686	9.35	1
0	10687	9.35	4
0	10688	9.35	1
0	10689	9.35	1
0	10730	9.4	1
0	10731	9.4	1
0	10732	9.4	4
0	10733	9.4	1
0	10734	9.4	1
0	10735	9.4	1
0	10736	9.4	1
0	10737	9.4	4
0	10738	9.4	1
0	10739	9.4	1
0	10813	9.45	1
0	10814	9.45	1
0	10815	9.45	4
0	10816	9.45	1
0	10817	9.45	1
0	10863	9.5	1
0	10864	9.5	1
0	10865	9.5	4
0	10866	9.5	1
0	10867	9.5	1
0	10868	9.5	1
0	10869	9.5	1
0	10870	9.5	4
0	10871	9.5	1
0	10872	9.5	1
0	10923	9.55	1
0	10924	9.55	1
0	10925	9.55	4
0	10926	9.55	1
0	10927	9.55	1
0	10968	9.6	1
0	10969	9.6	1
0	10970	9.6	4
0	10971	9.6	1
0	10972	9.6	1
0	10973	9.6	1
0	10974	9.6	1
0	10975	9.6	4
0	10976	9.6	1
0	10977	9.6	1
0	11028	9.65	1
0	11029	9.65	1
0	11030	9.65	4
0	11031	9.65	1
0	11032	9.65	1
0	11073	9.7	1
0	11074	9.7	1
0	11075	9.7	4
0	11076	9.7	1
0	11077	9.7	1
0	11078	9.7	1
0	11079	9.7	1
0	11080	9.7	4
0	11081	9.7	1
0	11082	9.7	1
0	11133	9.75	1
0	11134	9.75	1
0	11135	9.75	4
0	11136	9.75	1
0	11137	9.75	1
0	11183	9.8	1
0	11184	9.8	1
0	11185	9.8	4
0	11186	9.8	1
0	11187	9.8	1
0	11188	9.8	1
0	11189	9.8	1
0	11190	9.8	4
0	11191	9.8	1
0	11192	9.8	1
0	11266	9.85	1
0	11267	9.85	1
0	11268	9.85	4
0	11269	9.85	1
0	11270	9.85	1
0	11311	9.9	1
0	11312	9.9	1
0	11313	9.9	4
0	11314	9.9	1
0	11315	9.9	1
0	11316	9.9	1
0	11317	9.9	1
0	11318	9.9	4
0	11319	9.9	1
0	11320	9.9	1
0	11371	9.95	1
0	11372	9.95	1
0	11373	9.95	4
0	11374	9.95	1
0	11375	9.95	1
0	11438	10	1
0	11439	10	1
0	11440	10	4
0	11441	10	1
0	11442	10	1
0	11443	10	1
0	11444	10	1
0	11445	10	4
0	11446	10	1
0	11447	10	1
0	11503	10.05	1
0	11504	10.05	1
0	11505	10.05	4
0	11506	10.05	1
0	11507	10.05	1
0	11553	10.1	1
0	11554	10.1	1
0	11555	10.1	4
0	11556	10.1	1
0	11557	10.1	1
0	11558	10.1	1
0	11559	10.1	1
0	11560	10.1	4
0	11561	10.1	1
0	11562	10.1	1
0	11618	10.15	1
0	11619	10.15	1
0	11620	10.15	4
0	11621	10.15	1
0	11622	10.15	1
0	11663	10.2	1
0	11664	10.2	1
0	11665	10.2	4
0	11666	10.2	1
0	11667	10.2	1
0	11668	10.2	1
0	11669	10.2	1
0	11670	10.2	4
0	11671	10.2	1
0	11672	10.2	1
0	11723	10.25	1
0	11724	10.25	1
0	11725	10.25	4
0	11726	10.25	1
0	11727	10.25	1
0	11768	10.3	1
0	11769	10.3	1
0	11770	10.3	4
0	11771	10.3	1
0	11772	10.3	1
0	11773	10.3	1
0	11774	10.3	1
0	11775	10.3	4
0	11776	10.3	1
0	11777	10.3	1
0	11828	10.35	1
0	11829	10.35	1
0	11830	10.35	4
0	11831	10.35	1
0	11832	10.35	1
0	11890	10.4	1
0	11891	10.4	1
0	11892	10.4	4
0	11893	10.4	1
0	11894	10.4	1
0	11895	10.4	1
0	11896	10.4	1
0	11897	10.4	4
0	11898	10.4	1
0	11899	10.4	1
0	11950	10.45	1
0	11951	10.45	1
0	11952	10.45	4
0	11953	10.45	1
0	11954	10.45	1
0	12000	10.5	1
0	12001	10.5	1
0	12002	10.5	4
0	12003	10.5	1
0	12004	10.5	1
0	12005	10.5	1
0	12006	10.5	1
0	12007	10.5	4
0	12008	10.5	1
0	12009	10.5	1
0	12077	10.55	1
0	12078	10.55	1
0	12079	10.55	4
0	12080	10.55	1
0	12081	10.55	1
0	12122	10.6	1
0	12123	10.6	1
0	12124	10.6	4
0	12125	10.6	1
0	12126	10.6	1
0	12127	10.6	1
0	12128	10.6	1
0	12129	10.6	4
0	12130	10.6	1
0	12131	10.6	1
0	12182	10.65	1
0	12183	10.65	1
0	12184	10.65	4
0	12185	10.65	1
0	12186	10.65	1
0	12227	10.7	1
0	12228	10.7	1
0	12229	10.7	4
0	12230	10.7	1
0	12231	10.7	1
0	12232	10.7	1
0	12233	10.7	1
0	12234	10.7	4
0	12235	10.7	1
0	12236	10.7	1
0	12287	10.75	1
0	12288	10.75	1
0	12289	10.75	4
0	12290	10.75	1
0	12291	10.75	1
0	12332	10.8	1
0	12333	10.8	1
0	12334	10.8	4
0	12335	10.8	1
0	12336	10.8	1
0	12337	10.8	1
0	12338	10.8	1
0	12339	10.8	4
0	12340	10.8	1
0	12341	10.8	1
0	12392	10.85	1
0	12393	10.85	1
0	12394	10.85	4
0	12395	10.85	1
0	12396	10.85	1
0	12437	10.9	1
0	12438	10.9	1
0	12439	10.9	4
0	12440	10.9	1
0	12441	10.9	1
0	12442	10.9	1
0	12443	10.9	1
0	12444	10.9	4
0	12445	10.9	1
0	12446	10.9	1
0	12519	10.95	1
0	12520	10.95	1
0	12521	10.95	4
0	12522	10.95	1
0	12523	10.95	1
0	12569	11	1
0	12570	11	1
0	12571	11	4
0	12572	11	1
0	12573	11	1
0	12574	11	1
0	12575	11	1
0	12576	11	4
0	12577	11	1
0	12578	11	1
0	12688	11.05	1
0	12689	11.05	1
0	12690	11.05	4
0	12691	11.05	1
0	12692	11.05	1
0	12782	11.1	1
0	12783	11.1	1
0	12784	11.1	4
0	12785	11.1	1
0	12786	11.1	1
0	12787	11.1	1
0	12788	11.1	1
0	12789	11.1	4
0	12790	11.1	1
0	12791	11.1	1
0	12908	11.15	1
0	12909	11.15	1
0	12910	11.15	4
0	12911	11.15	1
0	12912	11.15	1
0	12964	11.2	1
0	12965	11.2	1
0	12966	11.2	4
0	12967	11.2	1
0	12968	11.2	1
0	12969	11.2	1
0	12970	11.2	1
0	12971	11.2	4
0	12972	11.2	1
0	12973	11.2	1
0	13024	11.25	1
0	13025	11.25	1
0	13026	11.25	4
0	13027	11.25	1
0	13028	11.25	1
0	13069	11.3	1
0	13070	11.3	1
0	13071	11.3	4
0	13072	11.3	1
0	13073	11.3	1
0	13074	11.3	1
0	13075	11.3	1
0	13076	11.3	4
0	13077	11.3	1
0	13078	11.3	1
0	13129	11.35	1
0	13130	11.35	1
0	13131	11.35	4
0	13132	11.35	1
0	13133	11.35	1
0	13174	11.4	1
0	13175	11.4	1
0	13176	11.4	4
0	13177	11.4	1
0	13178	11.4	1
0	13179	11.4	1
0	13180	11.4	1
0	13181	11.4	4
0	13182	11.4	1
0	13183	11.4	1
0	13234	11.45	1
0	13235	11.45	1
0	13236	11.45	4
0	13237	11.45	1
0	13238	11.45	1
0	13279	11.5	1
0	13280	11.5	1
0	13281	11.5	4
0	13282	11.5	1
0	13283	11.5	1
0	13284	11.5	1
0	13285	11.5	1
0	13286	11.5	4
0	13287	11.5	1
0	13288	11.5	1
0	13339	11.55	1
0	13340	11.55	1
0	13341	11.55	4
0	13342	11.55	1
0	13343	11.55	1
0	13384	11.6	1
0	13385	11.6	1
0	13386	11.6	4
0	13387	11.6	1
0	13388	11.6	1
0	13389	11.6	1
0	13390	11.6	1
0	13391	11.6	4
0	13392	11.6	1
0	13393	11.6	1
0	13467	11.65	1
0	13468	11.65	1
0	13469	11.65	4
0	13470	11.65	1
0	13471	11.65	1
0	13512	11.7	1
0	13513	11.7	1
0	13514	11.7	4
0	13515	11.7	1
0	13516	11.7	1
0	13517	11.7	1
0	13518	11.7	1
0	13519	11.7	4
0	13520	11.7	1
0	13521	11.7	1
0	13572	11.75	1
0	13573	11.75	1
0	13574	11.75	4
0	13575	11.75	1
0	13576	11.75	1
0	13622	11.8	1
0	13623	11.8	1
0	13624	11.8	4
0	13625	11.8	1
0	13626	11.8	1
0	13627	11.8	1
0	13628	11.8	1
0	13629	11.8	4
0	13630	11.8	1
0	13631	11.8	1
0	13682	11.85	1
0	13683	11.85	1
0	13684	11.85	4
0	13685	11.85	1
0	13686	11.85	1
0	13727	11.9	1
0	13728	11.9	1
0	13729	11.9	4
0	13730	11.9	1
0	13731	11.9	1
0	13732	11.9	1
0	13733	11.9	1
0	13734	11.9	4
0	13735	11.9	1
0	13736	11.9	1
0	13787	11.95	1
0	13788	11.95	1
0	13789	11.95	4
0	13790	11.95	1
0	13791	11.95	1
0	13837	12	1
0	13838	12	1
0	13839	12	4
0	13840	12	1
0	13841	12	1
0	13842	12	1
0	13843	12	1
0	13844	12	4
0	13845	12	1
0	13846	12	1
0	13897	12.05	1
0	13898	12.05	1
0	13899	12.05	4
0	13900	12.05	1
0	13901	12.05	1
0	13947	12.1	1
0	13948	12.1	1
0	13949	12.1	4
0	13950	12.1	1
0	13951	12.1	1
0	13952	12.1	1
0	13953	12.1	1
0	13954	12.1	4
0	13955	12.1	1
0	13956	12.1	1
0	14030	12.15	1
0	14031	12.15	1
0	14032	12.15	4
0	14033	12.15	1
0	14034	12.15	1
0	14075	12.2	1
0	14076	12.2	1
0	14077	12.2	4
0	14078	12.2	1
0	14079	12.2	1
0	14080	12.2	1
0	14081	12.2	1
0	14082	12.2	4
0	14083	12.2	1
0	14084	12.2	1
0	14135	12.25	1
0	14136	12.25	1
0	14137	12.25	4
0	14138	12.25	1
0	14139	12.25	1
0	14197	12.3	1
0	14198	12.3	1
0	14199	12.3	4
0	14200	12.3	1
0	14201	12.3	1
0	14202	12.3	1
0	14203	12.3	1
0	14204	12.3	4
0	14205	12.3	1
0	14206	12.3	1
0	14257	12.35	1
0	14258	12.35	1
0	14259	12.35	4
0	14260	12.35	1
0	14261	12.35	1
0	14302	12.4	1
0	14303	12.4	1
0	14304	12.4	4
0	14305	12.4	1
0	14306	12.4	1
0	14307	12.4	1
0	14308	12.4	1
0	14309	12.4	4
0	14310	12.4	1
0	14311	12.4	1
0	14362	12.45	1
0	14363	12.45	1
0	14364	12.45	4
0	14365	12.45	1
0	14366	12.45	1
0	14407	12.5	1
0	14408	12.5	1
0	14409	12.5	4
0	14410	12.5	1
0	14411	12.5	1
0	14412	12.5	1
0	14413	12.5	1
0	14414	12.5	4
0	14415	12.5	1
0	14416	12.5	1
0	14472	12.55	1
0	14473	12.55	1
0	14474	12.55	4
0	14475	12.55	1
0	14476	12.55	1
0	14517	12.6	1
0	14518	12.6	1
0	14519	12.6	4
0	14520	12.6	1
0	14521	12.6	1
0	14522	12.6	1
0	14523	12.6	1
0	14524	12.6	4
0	14525	12.6	1
0	14526	12.6	1
0	14594	12.65	1
0	14595	12.65	1
0	14596	12.65	4
0	14597	12.65	1
0	14598	12.65	1
0	14679	12.7	1
0	14680	12.7	1
0	14681	12.7	4
0	14682	12.7	1
0	14683	12.7	1
0	14684	12.7	1
0	14685	12.7	1
0	14686	12.7	4
0	14687	12.7	1
0	14688	12.7	1
0	14739	12.75	1
0	14740	12.75	1
0	14741	12.75	4
0	14742	12.75	1
0	14743	12.75	1
0	14807	12.8	1
0	14808	12.8	1
0	14809	12.8	4
0	14810	12.8	1
0	14811	12.8	1
0	14812	12.8	1
0	14813	12.8	1
0	14814	12.8	4
0	14815	12.8	1
0	14816	12.8	1
0	14922	12.85	1
0	14923	12.85	1
0	14924	12.85	4
0	14925	12.85	1
0	14926	12.85	1
0	15008	12.9	1
0	15009	12.9	1
0	15010	12.9	4
0	15011	12.9	1
0	15012	12.9	1
0	15013	12.9	1
0	15014	12.9	1
0	15015	12.9	4
0	15016	12.9	1
0	15017	12.9	1
0	15139	12.95	1
0	15140	12.95	1
0	15141	12.95	4
0	15142	12.95	1
0	15143	12.95	1
0	15212	13	1
0	15213	13	1
0	15214	13	4
0	15215	13	1
0	15216	13	1
0	15217	13	1
0	15218	13	1
0	15219	13	4
0	15220	13	1
0	15221	13	1
0	15283	13.05	1
0	15284	13.05	1
0	15285	13.05	4
0	15286	13.05	1
0	15287	13.05	1
0	15396	13.1	1
0	15397	13.1	1
0	15398	13.1	4
0	15399	13.1	1
0	15400	13.1	1
0	15401	13.1	1
0	15402	13.1	1
0	15403	13.1	4
0	15404	13.1	1
0	15405	13.1	1
0	15495	13.15	1
0	15496	13.15	1
0	15497	13.15	4
0	15498	13.15	1
0	15499	13.15	1
0	15663	13.2	1
0	15664	13.2	1
0	15665	13.2	4
0	15666	13.2	1
0	15667	13.2	1
0	15668	13.2	1
0	15669	13.2	1
0	15670	13.2	4
0	15671	13.2	1
0	15672	13.2	1
0	15854	13.25	1
0	15855	13.25	1
0	15856	13.25	4
0	15857	13.25	1
0	15858	13.25	1
0	15979	13.3	1
0	15980	13.3	1
0	15981	13.3	4
0	15982	13.3	1
0	15983	13.3	1
0	15984	13.3	1
0	15985	13.3	1
0	15986	13.3	4
0	15987	13.3	1
0	15988	13.3	1
0	16076	13.35	1
0	16077	13.35	1
0	16078	13.35	4
0	16079	13.35	1
0	16080	13.35	1
0	16143	13.4	1
0	16144	13.4	1
0	16145	13.4	4
0	16146	13.4	1
0	16147	13.4	1
0	16148	13.4	1
0	16149	13.4	1
0	16150	13.4	4
0	16151	13.4	1
0	16152	13.4	1
0	16203	13.45	1
0	16204	13.45	1
0	16205	13.45	4
0	16206	13.45	1
0	16207	13.45	1
0	16248	13.5	1
0	16249	13.5	1
0	16250	13.5	4
0	16251	13.5	1
0	16252	13.5	1
0	16253	13.5	1
0	16254	13.5	1
0	16255	13.5	4
0	16256	13.5	1
0	16257	13.5	1
0	16308	13.55	1
0	16309	13.55	1
0	16310	13.55	4
0	16311	13.55	1
0	16312	13.55	1
0	16353	13.6	1
0	16354	13.6	1
0	16355	13.6	4
0	16356	13.6	1
0	16357	13.6	1
0	16358	13.6	1
0	16359	13.6	1
0	16360	13.6	4
0	16361	13.6	1
0	16362	13.6	1
0	16418	13.65	1
0	16419	13.65	1
0	16420	13.65	4
0	16421	13.65	1
0	16422	13.65	1
0	16463	13.7	1
0	16464	13.7	1
0	16465	13.7	4
0	16466	13.7	1
0	16467	13.7	1
0	16468	13.7	1
0	16469	13.7	1
0	16470	13.7	4
0	16471	13.7	1
0	16472	13.7	1
0	16528	13.75	1
0	16529	13.75	1
0	16530	13.75	4
0	16531	13.75	1
0	16532	13.75	1
0	16578	13.8	1
0	16579	13.8	1
0	16580	13.8	4
0	16581	13.8	1
0	16582	13.8	1
0	16583	13.8	1
0	16584	13.8	1
0	16585	13.8	4
0	16586	13.8	1
0	16587	13.8	1
0	16638	13.85	1
0	16639	13.85	1
0	16640	13.85	4
0	16641	13.85	1
0	16642	13.85	1
0	16683	13.9	1
0	16684	13.9	1
0	16685	13.9	4
0	16686	13.9	1
0	16687	13.9	1
0	16688	13.9	1
0	16689	13.9	1
0	16690	13.9	4
0	16691	13.9	1
0	16692	13.9	1
0	16743	13.95	1
0	16744	13.95	1
0	16745	13.95	4
0	16746	13.95	1
0	16747	13.95	1
0	16788	14	1
0	16789	14	1
0	16790	14	4
0	16791	14	1
0	16792	14	1
0	16793	14	1
0	16794	14	1
0	16795	14	4
0	16796	14	1
0	16797	14	1
0	16848	14.05	1
0	16849	14.05	1
0	16850	14.05	4
0	16851	14.05	1
0	16852	14.05	1
0	16898	14.1	1
0	16899	14.1	1
0	16900	14.1	4
0	16901	14.1	1
0	16902	14.1	1
0	16903	14.1	1
0	16904	14.1	1
0	16905	14.1	4
0	16906	14.1	1
0	16907	14.1	1
0	16964	14.15	1
0	16965	14.15	1
0	16966	14.15	4
0	16967	14.15	1
0	16968	14.15	1
0	17009	14.2	1
0	17010	14.2	1
0	17011	14.2	4
0	17012	14.2	1
0	17013	14.2	1
0	17014	14.2	1
0	17015	14.2	1
0	17016	14.2	4
0	17017	14.2	1
0	17018	14.2	1
0	17069	14.25	1
0	17070	14.25	1
0	17071	14.25	4
0	17072	14.25	1
0	17073	14.25	1
0	17114	14.3	1
0	17115	14.3	1
0	17116	14.3	4
0	17117	14.3	1
0	17118	14.3	1
0	17119	14.3	1
0	17120	14.3	1
0	17121	14.3	4
0	17122	14.3	1
0	17123	14.3	1
0	17174	14.35	1
0	17175	14.35	1
0	17176	14.35	4
0	17177	14.35	1
0	17178	14.35	1
0	17219	14.4	1
0	17220	14.4	1
0	17221	14.4	4
0	17222	14.4	1
0	17223	14.4	1
0	17224	14.4	1
0	17225	14.4	1
0	17226	14.4	4
0	17227	14.4	1
0	17228	14.4	1
0	17279	14.45	1
0	17280	14.45	1
0	17281	14.45	4
0	17282	14.45	1
0	17283	14.45	1
0	17324	14.5	1
0	17325	14.5	1
0	17326	14.5	4
0	17327	14.5	1
0	17328	14.5	1
0	17329	14.5	1
0	17330	14.5	1
0	17331	14.5	4
0	17332	14.5	1
0	17333	14.5	1
0	17384	14.55	1
0	17385	14.55	1
0	17386	14.55	4
0	17387	14.55	1
0	17388	14.55	1
0	17429	14.6	1
0	17430	14.6	1
0	17431	14.6	4
0	17432	14.6	1
0	17433	14.6	1
0	17434	14.6	1
0	17435	14.6	1
0	17436	14.6	4
0	17437	14.6	1
0	17438	14.6	1
0	17489	14.65	1
0	17490	14.65	1
0	17491	14.65	4
0	17492	14.65	1
0	17493	14.65	1
0	17534	14.7	1
0	17535	14.7	1
0	17536	14.7	4
0	17537	14.7	1
0	17538	14.7	1
0	17539	14.7	1
0	17540	14.7	1
0	17541	14.7	4
0	17542	14.7	1
0	17543	14.7	1
0	17594	14.75	1
0	17595	14.75	1
0	17596	14.75	4
0	17597	14.75	1
0	17598	14.75	1
0	17639	14.8	1
0	17640	14.8	1
0	17641	14.8	4
0	17642	14.8	1
0	17643	14.8	1
0	17644	14.8	1
0	17645	14.8	1
0	17646	14.8	4
0	17647	14.8	1
0	17648	14.8	1
0	17727	14.85	1
0	17728	14.85	1
0	17729	14.85	4
0	17730	14.85	1
0	17731	14.85	1
0	17772	14.9	1
0	17773	14.9	1
0	17774	14.9	4
0	17775	14.9	1
0	17776	14.9	1
0	17777	14.9	1
0	17778	14.9	1
0	17779	14.9	4
0	17780	14.9	1
0	17781	14.9	1
0	17855	14.95	1
0	17856	14.95	1
0	17857	14.95	4
0	17858	14.95	1
0	17859	14.95	1
0	17927	15	1
0	17928	15	1
0	17929	15	4
0	17930	15	1
0	17931	15	1
0	17932	15	1
0	17933	15	1
0	17934	15	4
0	17935	15	1
0	17936	15	1
0	17987	15.05	1
0	17988	15.05	1
0	17989	15.05	4
0	17990	15.05	1
0	17991	15.05	1
0	18054	15.1	1
0	18055	15.1	1
0	18056	15.1	4
0	18057	15.1	1
0	18058	15.1	1
0	18059	15.1	1
0	18060	15.1	1
0	18061	15.1	4
0	18062	15.1	1
0	18063	15.1	1
0	18125	15.15	1
0	18126	15.15	1
0	18127	15.15	4
0	18128	15.15	1
0	18129	15.15	1
0	18170	15.2	1
0	18171	15.2	1
0	18172	15.2	4
0	18173	15.2	1
0	18174	15.2	1
0	18175	15.2	1
0	18176	15.2	1
0	18177	15.2	4
0	18178	15.2	1
0	18179	15.2	1
0	18230	15.25	1
0	18231	15.25	1
0	18232	15.25	4
0	18233	15.25	1
0	18234	15.25	1
0	18275	15.3	1
0	18276	15.3	1
0	18277	15.3	4
0	18278	15.3	1
0	18279	15.3	1
0	18280	15.3	1
0	18281	15.3	1
0	18282	15.3	4
0	18283	15.3	1
0	18284	15.3	1
0	18335	15.35	1
0	18336	15.35	1
0	18337	15.35	4
0	18338	15.35	1
0	18339	15.35	1
0	18380	15.4	1
0	18381	15.4	1
0	18382	15.4	4
0	18383	15.4	1
0	18384	15.4	1
0	18385	15.4	1
0	18386	15.4	1
0	18387	15.4	4
0	18388	15.4	1
0	18389	15.4	1
0	18440	15.45	1
0	18441	15.45	1
0	18442	15.45	4
0	18443	15.45	1
0	18444	15.45	1
0	18508	15.5	1
0	18509	15.5	1
0	18510	15.5	4
0	18511	15.5	1
0	18512	15.5	1
0	18513	15.5	1
0	18514	15.5	1
0	18515	15.5	4
0	18516	15.5	1
0	18517	15.5	1
0	18568	15.55	1
0	18569	15.55	1
0	18570	15.55	4
0	18571	15.55	1
0	18572	15.55	1
0	18613	15.6	1
0	18614	15.6	1
0	18615	15.6	4
0	18616	15.6	1
0	18617	15.6	1
0	18618	15.6	1
0	18619	15.6	1
0	18620	15.6	4
0	18621	15.6	1
0	18622	15.6	1
0	18738	15.65	1
0	18739	15.65	1
0	18740	15.65	4
0	18741	15.65	1
0	18742	15.65	1
0	18827	15.7	1
0	18828	15.7	1
0	18829	15.7	4
0	18830	15.7	1
0	18831	15.7	1
0	18832	15.7	1
0	18833	15.7	1
0	18834	15.7	4
0	18835	15.7	1
0	18836	15.7	1
0	18906	15.75	1
0	18907	15.75	1
0	18908	15.75	4
0	18909	15.75	1
0	18910	15.75	1
0	18951	15.8	1
0	18952	15.8	1
0	18953	15.8	4
0	18954	15.8	1
0	18955	15.8	1
0	18956	15.8	1
0	18957	15.8	1
0	18958	15.8	4
0	18959	15.8	1
0	18960	15.8	1
0	19011	15.85	1
0	19012	15.85	1
0	19013	15.85	4
0	19014	15.85	1
0	19015	15.85	1
0	19056	15.9	1
0	19057	15.9	1
0	19058	15.9	4
0	19059	15.9	1
0	19060	15.9	1
0	19061	15.9	1
0	19062	15.9	1
0	19063	15.9	4
0	19064	15.9	1
0	19065	15.9	1
0	19116	15.95	1
0	19117	15.95	1
0	19118	15.95	4
0	19119	15.95	1
0	19120	15.95	1
0	19161	16	1
0	19162	16	1
0	19163	16	4
0	19164	16	1
0	19165	16	1
0	19166	16	1
0	19167	16	1
0	19168	16	4
0	19169	16	1
0	19170	16	1
0	19244	16.05	1
0	19245	16.05	1
0	19246	16.05	4
0	19247	16.05	1
0	19248	16.05	1
0	19294	16.1	1
0	19295	16.1	1
0	19296	16.1	4
0	19297	16.1	1
0	19298	16.1	1
0	19299	16.1	1
0	19300	16.1	1
0	19301	16.1	4
0	19302	16.1	1
0	19303	16.1	1
0	19360	16.15	1
0	19361	16.15	1
0	19362	16.15	4
0	19363	16.15	1
0	19364	16.15	1
0	19448	16.2	1
0	19449	16.2	1
0	19450	16.2	4
0	19451	16.2	1
0	19452	16.2	1
0	19453	16.2	1
0	19454	16.2	1
0	19455	16.2	4
0	19456	16.2	1
0	19457	16.2	1
0	19535	16.25	1
0	19536	16.25	1
0	19537	16.25	4
0	19538	16.25	1
0	19539	16.25	1
0	19580	16.3	1
0	19581	16.3	1
0	19582	16.3	4
0	19583	16.3	1
0	19584	16.3	1
0	19585	16.3	1
0	19586	16.3	1
0	19587	16.3	4
0	19588	16.3	1
0	19589	16.3	1
0	19640	16.35	1
0	19641	16.35	1
0	19642	16.35	4
0	19643	16.35	1
0	19644	16.35	1
0	19685	16.4	1
0	19686	16.4	1
0	19687	16.4	4
0	19688	16.4	1
0	19689	16.4	1
0	19690	16.4	1
0	19691	16.4	1
0	19692	16.4	4
0	19693	16.4	1
0	19694	16.4	1
0	19773	16.45	1
0	19774	16.45	1
0	19775	16.45	4
0	19776	16.45	1
0	19777	16.45	1
0	19818	16.5	1
0	19819	16.5	1
0	19820	16.5	4
0	19821	16.5	1
0	19822	16.5	1
0	19823	16.5	1
0	19824	16.5	1
0	19825	16.5	4
0	19826	16.5	1
0	19827	16.5	1
0	19878	16.55	1
0	19879	16.55	1
0	19880	16.55	4
0	19881	16.55	1
0	19882	16.55	1
0	20043	16.6	1
0	20044	16.6	1
0	20045	16.6	4
0	20046	16.6	1
0	20047	16.6	1
0	20048	16.6	1
0	20049	16.6	1
0	20050	16.6	4
0	20051	16.6	1
0	20052	16.6	1
0	20131	16.65	1
0	20132	16.65	1
0	20133	16.65	4
0	20134	16.65	1
0	20135	16.65	1
0	20215	16.7	1
0	20216	16.7	1
0	20217	16.7	4
0	20218	16.7	1
0	20219	16.7	1
0	20220	16.7	1
0	20221	16.7	1
0	20222	16.7	4
0	20223	16.7	1
0	20224	16.7	1
0	20303	16.75	1
0	20304	16.75	1
0	20305	16.75	4
0	20306	16.75	1
0	20307	16.75	1
0	20348	16.8	1
0	20349	16.8	1
0	20350	16.8	4
0	20351	16.8	1
0	20352	16.8	1
0	20353	16.8	1
0	20354	16.8	1
0	20355	16.8	4
0	20356	16.8	1
0	20357	16.8	1
0	20408	16.85	1
0	20409	16.85	1
0	20410	16.85	4
0	20411	16.85	1
0	20412	16.85	1
0	20453	16.9	1
0	20454	16.9	1
0	20455	16.9	4
0	20456	16.9	1
0	20457	16.9	1
0	20458	16.9	1
0	20459	16.9	1
0	20460	16.9	4
0	20461	16.9	1
0	20462	16.9	1
0	20513	16.95	1
0	20514	16.95	1
0	20515	16.95	4
0	20516	16.95	1
0	20517	16.95	1
0	20568	17	1
0	20569	17	1
0	20570	17	4
0	20571	17	1
0	20572	17	1
0	20573	17	1
0	20574	17	1
0	20575	17	4
0	20576	17	1
0	20577	17	1
0	20628	17.05	1
0	20629	17.05	1
0	20630	17.05	4
0	20631	17.05	1
0	20632	17.05	1
0	20678	17.1	1
0	20679	17.1	1
0	20680	17.1	4
0	20681	17.1	1
0	20682	17.1	1
0	20683	17.1	1
0	20684	17.1	1
0	20685	17.1	4
0	20686	17.1	1
0	20687	17.1	1
0	20749	17.15	1
0	20750	17.15	1
0	20751	17.15	4
0	20752	17.15	1
0	20753	17.15	1
0	20794	17.2	1
0	20795	17.2	1
0	20796	17.2	4
0	20797	17.2	1
0	20798	17.2	1
0	20799	17.2	1
0	20800	17.2	1
0	20801	17.2	4
0	20802	17.2	1
0	20803	17.2	1
0	20854	17.25	1
0	20855	17.25	1
0	20856	17.25	4
0	20857	17.25	1
0	20858	17.25	1
0	20899	17.3	1
0	20900	17.3	1
0	20901	17.3	4
0	20902	17.3	1
0	20903	17.3	1
0	20904	17.3	1
0	20905	17.3	1
0	20906	17.3	4
0	20907	17.3	1
0	20908	17.3	1
0	20959	17.35	1
0	20960	17.35	1
0	20961	17.35	4
0	20962	17.35	1
0	20963	17.35	1
0	21004	17.4	1
0	21005	17.4	1
0	21006	17.4	4
0	21007	17.4	1
0	21008	17.4	1
0	21009	17.4	1
0	21010	17.4	1
0	21011	17.4	4
0	21012	17.4	1
0	21013	17.4	1
0	21064	17.45	1
0	21065	17.45	1
0	21066	17.45	4
0	21067	17.45	1
0	21068	17.45	1
0	21109	17.5	1
0	21110	17.5	1
0	21111	17.5	4
0	21112	17.5	1
0	21113	17.5	1
0	21114	17.5	1
0	21115	17.5	1
0	21116	17.5	4
0	21117	17.5	1
0	21118	17.5	1
0	21169	17.55	1
0	21170	17.55	1
0	21171	17.55	4
0	21172	17.55	1
0	21173	17.55	1
0	21214	17.6	1
0	21215	17.6	1
0	21216	17.6	4
0	21217	17.6	1
0	21218	17.6	1
0	21219	17.6	1
0	21220	17.6	1
0	21221	17.6	4
0	21222	17.6	1
0	21223	17.6	1
0	21274	17.65	1
0	21275	17.65	1
0	21276	17.65	4
0	21277	17.65	1
0	21278	17.65	1
0	21319	17.7	1
0	21320	17.7	1
0	21321	17.7	4
0	21322	17.7	1
0	21323	17.7	1
0	21324	17.7	1
0	21325	17.7	1
0	21326	17.7	4
0	21327	17.7	1
0	21328	17.7	1
0	21379	17.75	1
0	21380	17.75	1
0	21381	17.75	4
0	21382	17.75	1
0	21383	17.75	1
0	21424	17.8	1
0	21425	17.8	1
0	21426	17.8	4
0	21427	17.8	1
0	21428	17.8	1
0	21429	17.8	1
0	21430	17.8	1
0	21431	17.8	4
0	21432	17.8	1
0	21433	17.8	1
0	21484	17.85	1
0	21485	17.85	1
0	21486	17.85	4
0	21487	17.85	1
0	21488	17.85	1
0	21529	17.9	1
0	21530	17.9	1
0	21531	17.9	4
0	21532	17.9	1
0	21533	17.9	1
0	21534	17.9	1
0	21535	17.9	1
0	21536	17.9	4
0	21537	17.9	1
0	21538	17.9	1
0	21589	17.95	1
0	21590	17.95	1
0	21591	17.95	4
0	21592	17.95	1
0	21593	17.95	1
0	21634	18	1
0	21635	18	1
0	21636	18	4
0	21637	18	1
0	21638	18	1
0	21639	18	1
0	21640	18	1
0	21641	18	4
0	21642	18	1
0	21643	18	1
0	21711	18.05	1
0	21712	18.05	1
0	21713	18.05	4
0	21714	18.05	1
0	21715	18.05	1
0	21761	18.1	1
0	21762	18.1	1
0	21763	18.1	4
0	21764	18.1	1
0	21765	18.1	1
0	21766	18.1	1
0	21767	18.1	1
0	21768	18.1	4
0	21769	18.1	1
0	21770	18.1	1
0	21827	18.15	1
0	21828	18.15	1
0	21829	18.15	4
0	21830	18.15	1
0	21831	18.15	1
0	21899	18.2	1
0	21900	18.2	1
0	21901	18.2	4
0	21902	18.2	1
0	21903	18.2	1
0	21904	18.2	1
0	21905	18.2	1
0	21906	18.2	4
0	21907	18.2	1
0	21908	18.2	1
0	21959	18.25	1
0	21960	18.25	1
0	21961	18.25	4
0	21962	18.25	1
0	21963	18.25	1
0	22004	18.3	1
0	22005	18.3	1
0	22006	18.3	4
0	22007	18.3	1
0	22008	18.3	1
0	22009	18.3	1
0	22010	18.3	1
0	22011	18.3	4
0	22012	18.3	1
0	22013	18.3	1
0	22086	18.35	1
0	22087	18.35	1
0	22088	18.35	4
0	22089	18.35	1
0	22090	18.35	1
0	22131	18.4	1
0	22132	18.4	1
0	22133	18.4	4
0	22134	18.4	1
0	22135	18.4	1
0	22136	18.4	1
0	22137	18.4	1
0	22138	18.4	4
0	22139	18.4	1
0	22140	18.4	1
0	22191	18.45	1
0	22192	18.45	1
0	22193	18.45	4
0	22194	18.45	1
0	22195	18.45	1
0	22253	18.5	1
0	22254	18.5	1
0	22255	18.5	4
0	22256	18.5	1
0	22257	18.5	1
0	22258	18.5	1
0	22259	18.5	1
0	22260	18.5	4
0	22261	18.5	1
0	22262	18.5	1
0	22313	18.55	1
0	22314	18.55	1
0	22315	18.55	4
0	22316	18.55	1
0	22317	18.55	1
0	22363	18.6	1
0	22364	18.6	1
0	22365	18.6	4
0	22366	18.6	1
0	22367	18.6	1
0	22368	18.6	1
0	22369	18.6	1
0	22370	18.6	4
0	22371	18.6	1
0	22372	18.6	1
0	22423	18.65	1
0	22424	18.65	1
0	22425	18.65	4
0	22426	18.65	1
0	22427	18.65	1
0	22468	18.7	1
0	22469	18.7	1
0	22470	18.7	4
0	22471	18.7	1
0	22472	18.7	1
0	22473	18.7	1
0	22474	18.7	1
0	22475	18.7	4
0	22476	18.7	1
0	22477	18.7	1
0	22528	18.75	1
0	22529	18.75	1
0	22530	18.75	4
0	22531	18.75	1
0	22532	18.75	1
0	22573	18.8	1
0	22574	18.8	1
0	22575	18.8	4
0	22576	18.8	1
0	22577	18.8	1
0	22578	18.8	1
0	22579	18.8	1
0	22580	18.8	4
0	22581	18.8	1
0	22582	18.8	1
0	22633	18.85	1
0	22634	18.85	1
0	22635	18.85	4
0	22636	18.85	1
0	22637	18.85	1
0	22683	18.9	1
0	22684	18.9	1
0	22685	18.9	4
0	22686	18.9	1
0	22687	18.9	1
0	22688	18.9	1
0	22689	18.9	1
0	22690	18.9	4
0	22691	18.9	1
0	22692	18.9	1
0	22743	18.95	1
0	22744	18.95	1
0	22745	18.95	4
0	22746	18.95	1
0	22747	18.95	1
0	22788	19	1
0	22789	19	1
0	22790	19	4
0	22791	19	1
0	22792	19	1
0	22793	19	1
0	22794	19	1
0	22795	19	4
0	22796	19	1
0	22797	19	1
0	22848	19.05	1
0	22849	19.05	1
0	22850	19.05	4
0	22851	19.05	1
0	22852	19.05	1
0	22898	19.1	1
0	22899	19.1	1
0	22900	19.1	4
0	22901	19.1	1
0	22902	19.1	1
0	22903	19.1	1
0	22904	19.1	1
0	22905	19.1	4
0	22906	19.1	1
0	22907	19.1	1
0	22964	19.15	1
0	22965	19.15	1
0	22966	19.15	4
0	22967	19.15	1
0	22968	19.15	1
0	23009	19.2	1
0	23010	19.2	1
0	23011	19.2	4
0	23012	19.2	1
0	23013	19.2	1
0	23014	19.2	1
0	23015	19.2	1
0	23016	19.2	4
0	23017	19.2	1
0	23018	19.2	1
0	23069	19.25	1
0	23070	19.25	1
0	23071	19.25	4
0	23072	19.25	1
0	23073	19.25	1
0	23114	19.3	1
0	23115	19.3	1
0	23116	19.3	4
0	23117	19.3	1
0	23118	19.3	1
0	23119	19.3	1
0	23120	19.3	1
0	23121	19.3	4
0	23122	19.3	1
0	23123	19.3	1
0	23174	19.35	1
0	23175	19.35	1
0	23176	19.35	4
0	23177	19.35	1
0	23178	19.35	1
0	23219	19.4	1
0	23220	19.4	1
0	23221	19.4	4
0	23222	19.4	1
0	23223	19.4	1
0	23224	19.4	1
0	23225	19.4	1
0	23226	19.4	4
0	23227	19.4	1
0	23228	19.4	1
0	23279	19.45	1
0	23280	19.45	1
0	23281	19.45	4
0	23282	19.45	1
0	23283	19.45	1
0	23324	19.5	1
0	23325	19.5	1
0	23326	19.5	4
0	23327	19.5	1
0	23328	19.5	1
0	23329	19.5	1
0	23330	19.5	1
0	23331	19.5	4
0	23332	19.5	1
0	23333	19.5	1
0	23384	19.55	1
0	23385	19.55	1
0	23386	19.55	4
0	23387	19.55	1
0	23388	19.55	1
0	23429	19.6	1
0	23430	19.6	1
0	23431	19.6	4
0	23432	19.6	1
0	23433	19.6	1
0	23434	19.6	1
0	23435	19.6	1
0	23436	19.6	4
0	23437	19.6	1
0	23438	19.6	1
0	23512	19.65	1
0	23513	19.65	1
0	23514	19.65	4
0	23515	19.65	1
0	23516	19.65	1
0	23557	19.7	1
0	23558	19.7	1
0	23559	19.7	4
0	23560	19.7	1
0	23561	19.7	1
0	23562	19.7	1
0	23563	19.7	1
0	23564	19.7	4
0	23565	19.7	1
0	23566	19.7	1
0	23617	19.75	1
0	23618	19.75	1
0	23619	19.75	4
0	23620	19.75	1
0	23621	19.75	1
0	23767	19.8	1
0	23768	19.8	1
0	23769	19.8	4
0	23770	19.8	1
0	23771	19.8	1
0	23772	19.8	1
0	23773	19.8	1
0	23774	19.8	4
0	23775	19.8	1
0	23776	19.8	1
0	23879	19.85	1
0	23880	19.85	1
0	23881	19.85	4
0	23882	19.85	1
0	23883	19.85	1
0	23983	19.9	1
0	23984	19.9	1
0	23985	19.9	4
0	23986	19.9	1
0	23987	19.9	1
0	23988	19.9	1
0	23989	19.9	1
0	23990	19.9	4
0	23991	19.9	1
0	23992	19.9	1
0	24154	19.95	1
0	24155	19.95	1
0	24156	19.95	4
0	24157	19.95	1
0	24158	19.95	1
0	24259	20	1
0	24260	20	1
0	24261	20	4
0	24262	20	1
0	24263	20	1
0	24264	20	1
0	24265	20	1
0	24266	20	4
0	24267	20	1
0	24268	20	1
0	24342	20.05	1
0	24343	20.05	1
0	24344	20.05	4
0	24345	20.05	1
0	24346	20.05	1
0	24448	20.1	1
0	24449	20.1	1
0	24450	20.1	4
0	24451	20.1	1
0	24452	20.1	1
0	24453	20.1	1
0	24454	20.1	1
0	24455	20.1	4
0	24456	20.1	1
0	24457	20.1	1
0	24514	20.15	1
0	24515	20.15	1
0	24516	20.15	4
0	24517	20.15	1
0	24518	20.15	1
0	24564	20.2	1
0	24565	20.2	1
0	24566	20.2	4
0	24567	20.2	1
0	24568	20.2	1
0	24569	20.2	1
0	24570	20.2	1
0	24571	20.2	4
0	24572	20.2	1
0	24573	20.2	1
0	24641	20.25	1
0	24642	20.25	1
0	24643	20.25	4
0	24644	20.25	1
0	24645	20.25	1
0	24686	20.3	1
0	24687	20.3	1
0	24688	20.3	4
0	24689	20.3	1
0	24690	20.3	1
0	24691	20.3	1
0	24692	20.3	1
0	24693	20.3	4
0	24694	20.3	1
0	24695	20.3	1
0	24768	20.35	1
0	24769	20.35	1
0	24770	20.35	4
0	24771	20.35	1
0	24772	20.35	1
0	24813	20.4	1
0	24814	20.4	1
0	24815	20.4	4
0	24816	20.4	1
0	24817	20.4	1
0	24818	20.4	1
0	24819	20.4	1
0	24820	20.4	4
0	24821	20.4	1
0	24822	20.4	1
0	24873	20.45	1
0	24874	20.45	1
0	24875	20.45	4
0	24876	20.45	1
0	24877	20.45	1
0	24935	20.5	1
0	24936	20.5	1
0	24937	20.5	4
0	24938	20.5	1
0	24939	20.5	1
0	24940	20.5	1
0	24941	20.5	1
0	24942	20.5	4
0	24943	20.5	1
0	24944	20.5	1
0	24995	20.55	1
0	24996	20.55	1
0	24997	20.55	4
0	24998	20.55	1
0	24999	20.55	1
0	25040	20.6	1
0	25041	20.6	1
0	25042	20.6	4
0	25043	20.6	1
0	25044	20.6	1
0	25045	20.6	1
0	25046	20.6	1
0	25047	20.6	4
0	25048	20.6	1
0	25049	20.6	1
0	25123	20.65	1
0	25124	20.65	1
0	25125	20.65	4
0	25126	20.65	1
0	25127	20.65	1
0	25168	20.7	1
0	25169	20.7	1
0	25170	20.7	4
0	25171	20.7	1
0	25172	20.7	1
0	25173	20.7	1
0	25174	20.7	1
0	25175	20.7	4
0	25176	20.7	1
0	25177	20.7	1
0	25228	20.75	1
0	25229	20.75	1
0	25230	20.75	4
0	25231	20.75	1
0	25232	20.75	1
0	25319	20.8	1
0	25320	20.8	1
0	25321	20.8	4
0	25322	20.8	1
0	25323	20.8	1
0	25324	20.8	1
0	25325	20.8	1
0	25326	20.8	4
0	25327	20.8	1
0	25328	20.8	1
0	25391	20.85	1
0	25392	20.85	1
0	25393	20.85	4
0	25394	20.85	1
0	25395	20.85	1
0	25522	20.9	1
0	25523	20.9	1
0	25524	20.9	4
0	25525	20.9	1
0	25526	20.9	1
0	25527	20.9	1
0	25528	20.9	1
0	25529	20.9	4
0	25530	20.9	1
0	25531	20.9	1
0	25606	20.95	1
0	25607	20.95	1
0	25608	20.95	4
0	25609	20.95	1
0	25610	20.95	1
0	25708	21	1
0	25709	21	1
0	25710	21	4
0	25711	21	1
0	25712	21	1
0	25713	21	1
0	25714	21	1
0	25715	21	4
0	25716	21	1
0	25717	21	1
0	25834	21.05	1
0	25835	21.05	1
0	25836	21.05	4
0	25837	21.05	1
0	25838	21.05	1
0	25918	21.1	1
0	25919	21.1	1
0	25920	21.1	4
0	25921	21.1	1
0	25922	21.1	1
0	25923	21.1	1
0	25924	21.1	1
0	25925	21.1	4
0	25926	21.1	1
0	25927	21.1	1
0	26041	21.15	1
0	26042	21.15	1
0	26043	21.15	4
0	26044	21.15	1
0	26045	21.15	1
0	26124	21.2	1
0	26125	21.2	1
0	26126	21.2	4
0	26127	21.2	1
0	26128	21.2	1
0	26129	21.2	1
0	26130	21.2	1
0	26131	21.2	4
0	26132	21.2	1
0	26133	21.2	1
0	26184	21.25	1
0	26185	21.25	1
0	26186	21.25	4
0	26187	21.25	1
0	26188	21.25	1
0	26229	21.3	1
0	26230	21.3	1
0	26231	21.3	4
0	26232	21.3	1
0	26233	21.3	1
0	26234	21.3	1
0	26235	21.3	1
0	26236	21.3	4
0	26237	21.3	1
0	26238	21.3	1
0	26306	21.35	1
0	26307	21.35	1
0	26308	21.35	4
0	26309	21.35	1
0	26310	21.35	1
0	26410	21.4	1
0	26411	21.4	1
0	26412	21.4	4
0	26413	21.4	1
0	26414	21.4	1
0	26415	21.4	1
0	26416	21.4	1
0	26417	21.4	4
0	26418	21.4	1
0	26419	21.4	1
0	26548	21.45	1
0	26549	21.45	1
0	26550	21.45	4
0	26551	21.45	1
0	26552	21.45	1
0	26674	21.5	1
0	26675	21.5	1
0	26676	21.5	4
0	26677	21.5	1
0	26678	21.5	1
0	26679	21.5	1
0	26680	21.5	1
0	26681	21.5	4
0	26682	21.5	1
0	26683	21.5	1
0	26904	21.55	1
0	26905	21.55	1
0	26906	21.55	4
0	26907	21.55	1
0	26908	21.55	1
0	27021	21.6	1
0	27022	21.6	1
0	27023	21.6	4
0	27024	21.6	1
0	27025	21.6	1
0	27026	21.6	1
0	27027	21.6	1
0	27028	21.6	4
0	27029	21.6	1
0	27030	21.6	1
0	27144	21.65	1
0	27145	21.65	1
0	27146	21.65	4
0	27147	21.65	1
0	27148	21.65	1
0	27236	21.7	1
0	27237	21.7	1
0	27238	21.7	4
0	27239	21.7	1
0	27240	21.7	1
0	27241	21.7	1
0	27242	21.7	1
0	27243	21.7	4
0	27244	21.7	1
0	27245	21.7	1
0	27353	21.75	1
0	27354	21.75	1
0	27355	21.75	4
0	27356	21.75	1
0	27357	21.75	1
0	27418	21.8	1
0	27419	21.8	1
0	27420	21.8	4
0	27421	21.8	1
0	27422	21.8	1
0	27423	21.8	1
0	27424	21.8	1
0	27425	21.8	4
0	27426	21.8	1
0	27427	21.8	1
0	27517	21.85	1
0	27518	21.85	1
0	27519	21.85	4
0	27520	21.85	1
0	27521	21.85	1
0	27601	21.9	1
0	27602	21.9	1
0	27603	21.9	4
0	27604	21.9	1
0	27605	21.9	1
0	27606	21.9	1
0	27607	21.9	1
0	27608	21.9	4
0	27609	21.9	1
0	27610	21.9	1
0	27732	21.95	1
0	27733	21.95	1
0	27734	21.95	4
0	27735	21.95	1
0	27736	21.95	1
0	27822	22	1
0	27823	22	1
0	27824	22	4
0	27825	22	1
0	27826	22	1
0	27827	22	1
0	27828	22	1
0	27829	22	4
0	27830	22	1
0	27831	22	1
0	27923	22.05	1
0	27924	22.05	1
0	27925	22.05	4
0	27926	22.05	1
0	27927	22.05	1
0	28071	22.1	1
0	28072	22.1	1
0	28073	22.1	4
0	28074	22.1	1
0	28075	22.1	1
0	28076	22.1	1
0	28077	22.1	1
0	28078	22.1	4
0	28079	22.1	1
0	28080	22.1	1
0	28169	22.15	1
0	28170	22.15	1
0	28171	22.15	4
0	28172	22.15	1
0	28173	22.15	1
0	28214	22.2	1
0	28215	22.2	1
0	28216	22.2	4
0	28217	22.2	1
0	28218	22.2	1
0	28219	22.2	1
0	28220	22.2	1
0	28221	22.2	4
0	28222	22.2	1
0	28223	22.2	1
0	28291	22.25	1
0	28292	22.25	1
0	28293	22.25	4
0	28294	22.25	1
0	28295	22.25	1
0	28336	22.3	1
0	28337	22.3	1
0	28338	22.3	4
0	28339	22.3	1
0	28340	22.3	1
0	28341	22.3	1
0	28342	22.3	1
0	28343	22.3	4
0	28344	22.3	1
0	28345	22.3	1
0	28396	22.35	1
0	28397	22.35	1
0	28398	22.35	4
0	28399	22.35	1
0	28400	22.35	1
0	28441	22.4	1
0	28442	22.4	1
0	28443	22.4	4
0	28444	22.4	1
0	28445	22.4	1
0	28446	22.4	1
0	28447	22.4	1
0	28448	22.4	4
0	28449	22.4	1
0	28450	22.4	1
0	28501	22.45	1
0	28502	22.45	1
0	28503	22.45	4
0	28504	22.45	1
0	28505	22.45	1
0	28563	22.5	1
0	28564	22.5	1
0	28565	22.5	4
0	28566	22.5	1
0	28567	22.5	1
0	28568	22.5	1
0	28569	22.5	1
0	28570	22.5	4
0	28571	22.5	1
0	28572	22.5	1
0	28623	22.55	1
0	28624	22.55	1
0	28625	22.55	4
0	28626	22.55	1
0	28627	22.55	1
0	28668	22.6	1
0	28669	22.6	1
0	28670	22.6	4
0	28671	22.6	1
0	28672	22.6	1
0	28673	22.6	1
0	28674	22.6	1
0	28675	22.6	4
0	28676	22.6	1
0	28677	22.6	1
0	28762	22.65	1
0	28763	22.65	1
0	28764	22.65	4
0	28765	22.65	1
0	28766	22.65	1
0	28807	22.7	1
0	28808	22.7	1
0	28809	22.7	4
0	28810	22.7	1
0	28811	22.7	1
0	28812	22.7	1
0	28813	22.7	1
0	28814	22.7	4
0	28815	22.7	1
0	28816	22.7	1
0	28867	22.75	1
0	28868	22.75	1
0	28869	22.75	4
0	28870	22.75	1
0	28871	22.75	1
0	28950	22.8	1
0	28951	22.8	1
0	28952	22.8	4
0	28953	22.8	1
0	28954	22.8	1
0	28955	22.8	1
0	28956	22.8	1
0	28957	22.8	4
0	28958	22.8	1
0	28959	22.8	1
0	29010	22.85	1
0	29011	22.85	1
0	29012	22.85	4
0	29013	22.85	1
0	29014	22.85	1
0	29055	22.9	1
0	29056	22.9	1
0	29057	22.9	4
0	29058	22.9	1
0	29059	22.9	1
0	29060	22.9	1
0	29061	22.9	1
0	29062	22.9	4
0	29063	22.9	1
0	29064	22.9	1
0	29175	22.95	1
0	29176	22.95	1
0	29177	22.95	4
0	29178	22.95	1
0	29179	22.95	1
0	29242	23	1
0	29243	23	1
0	29244	23	4
0	29245	23	1
0	29246	23	1
0	29247	23	1
0	29248	23	1
0	29249	23	4
0	29250	23	1
0	29251	23	1
0	29384	23.05	1
0	29385	23.05	1
0	29386	23.05	4
0	29387	23.05	1
0	29388	23.05	1
0	29496	23.1	1
0	29497	23.1	1
0	29498	23.1	4
0	29499	23.1	1
0	29500	23.1	1
0	29501	23.1	1
0	29502	23.1	1
0	29503	23.1	4
0	29504	23.1	1
0	29505	23.1	1
0	29613	23.15	1
0	29614	23.15	1
0	29615	23.15	4
0	29616	23.15	1
0	29617	23.15	1
0	29697	23.2	1
0	29698	23.2	1
0	29699	23.2	4
0	29700	23.2	1
0	29701	23.2	1
0	29702	23.2	1
0	29703	23.2	1
0	29704	23.2	4
0	29705	23.2	1
0	29706	23.2	1
0	29757	23.25	1
0	29758	23.25	1
0	29759	23.25	4
0	29760	23.25	1
0	29761	23.25	1
0	29802	23.3	1
0	29803	23.3	1
0	29804	23.3	4
0	29805	23.3	1
0	29806	23.3	1
0	29807	23.3	1
0	29808	23.3	1
0	29809	23.3	4
0	29810	23.3	1
0	29811	23.3	1
0	29879	23.35	1
0	29880	23.35	1
0	29881	23.35	4
0	29882	23.35	1
0	29883	23.35	1
0	29924	23.4	1
0	29925	23.4	1
0	29926	23.4	4
0	29927	23.4	1
0	29928	23.4	1
0	29929	23.4	1
0	29930	23.4	1
0	29931	23.4	4
0	29932	23.4	1
0	29933	23.4	1
0	29984	23.45	1
0	29985	23.45	1
0	29986	23.45	4
0	29987	23.45	1
0	29988	23.45	1
0	30029	23.5	1
0	30030	23.5	1
0	30031	23.5	4
0	30032	23.5	1
0	30033	23.5	1
0	30034	23.5	1
0	30035	23.5	1
0	30036	23.5	4
0	30037	23.5	1
0	30038	23.5	1
0	30089	23.55	1
0	30090	23.55	1
0	30091	23.55	4
0	30092	23.55	1
0	30093	23.55	1
0	30180	23.6	1
0	30181	23.6	1
0	30182	23.6	4
0	30183	23.6	1
0	30184	23.6	1
0	30185	23.6	1
0	30186	23.6	1
0	30187	23.6	4
0	30188	23.6	1
0	30189	23.6	1
0	30287	23.65	1
0	30288	23.65	1
0	30289	23.65	4
0	30290	23.65	1
0	30291	23.65	1
0	30332	23.7	1
0	30333	23.7	1
0	30334	23.7	4
0	30335	23.7	1
0	30336	23.7	1
0	30337	23.7	1
0	30338	23.7	1
0	30339	23.7	4
0	30340	23.7	1
0	30341	23.7	1
0	30420	23.75	1
0	30421	23.75	1
0	30422	23.75	4
0	30423	23.75	1
0	30424	23.75	1
0	30465	23.8	1
0	30466	23.8	1
0	30467	23.8	4
0	30468	23.8	1
0	30469	23.8	1
0	30470	23.8	1
0	30471	23.8	1
0	30472	23.8	4
0	30473	23.8	1
0	30474	23.8	1
0	30525	23.85	1
0	30526	23.85	1
0	30527	23.85	4
0	30528	23.85	1
0	30529	23.85	1
0	30570	23.9	1
0	30571	23.9	1
0	30572	23.9	4
0	30573	23.9	1
0	30574	23.9	1
0	30575	23.9	1
0	30576	23.9	1
0	30577	23.9	4
0	30578	23.9	1
0	30579	23.9	1
0	30630	23.95	1
0	30631	23.95	1
0	30632	23.95	4
0	30633	23.95	1
0	30634	23.95	1
0	30675	24	1
0	30676	24	1
0	30677	24	4
0	30678	24	1
0	30679	24	1
0	30680	24	1
0	30681	24	1
0	30682	24	4
0	30683	24	1
0	30684	24	1
0	30735	24.05	1
0	30736	24.05	1
0	30737	24.05	4
0	30738	24.05	1
0	30739	24.05	1
0	30785	24.1	1
0	30786	24.1	1
0	30787	24.1	4
0	30788	24.1	1
0	30789	24.1	1
0	30790	24.1	1
0	30791	24.1	1
0	30792	24.1	4
0	30793	24.1	1
0	30794	24.1	1
0	30855	24.15	1
0	30856	24.15	1
0	30857	24.15	4
0	30858	24.15	1
0	30859	24.15	1
0	30900	24.2	1
0	30901	24.2	1
0	30902	24.2	4
0	30903	24.2	1
0	30904	24.2	1
0	30905	24.2	1
0	30906	24.2	1
0	30907	24.2	4
0	30908	24.2	1
0	30909	24.2	1
0	30960	24.25	1
0	30961	24.25	1
0	30962	24.25	4
0	30963	24.25	1
0	30964	24.25	1
0	31005	24.3	1
0	31006	24.3	1
0	31007	24.3	4
0	31008	24.3	1
0	31009	24.3	1
0	31010	24.3	1
0	31011	24.3	1
0	31012	24.3	4
0	31013	24.3	1
0	31014	24.3	1
0	31065	24.35	1
0	31066	24.35	1
0	31067	24.35	4
0	31068	24.35	1
0	31069	24.35	1
0	31110	24.4	1
0	31111	24.4	1
0	31112	24.4	4
0	31113	24.4	1
0	31114	24.4	1
0	31115	24.4	1
0	31116	24.4	1
0	31117	24.4	4
0	31118	24.4	1
0	31119	24.4	1
0	31170	24.45	1
0	31171	24.45	1
0	31172	24.45	4
0	31173	24.45	1
0	31174	24.45	1
0	31215	24.5	1
0	31216	24.5	1
0	31217	24.5	4
0	31218	24.5	1
0	31219	24.5	1
0	31220	24.5	1
0	31221	24.5	1
0	31222	24.5	4
0	31223	24.5	1
0	31224	24.5	1
0	31280	24.55	1
0	31281	24.55	1
0	31282	24.55	4
0	31283	24.55	1
0	31284	24.55	1
0	31325	24.6	1
0	31326	24.6	1
0	31327	24.6	4
0	31328	24.6	1
0	31329	24.6	1
0	31330	24.6	1
0	31331	24.6	1
0	31332	24.6	4
0	31333	24.6	1
0	31334	24.6	1
0	31402	24.65	1
0	31403	24.65	1
0	31404	24.65	4
0	31405	24.65	1
0	31406	24.65	1
0	31452	24.7	1
0	31453	24.7	1
0	31454	24.7	4
0	31455	24.7	1
0	31456	24.7	1
0	31457	24.7	1
0	31458	24.7	1
0	31459	24.7	4
0	31460	24.7	1
0	31461	24.7	1
0	31512	24.75	1
0	31513	24.75	1
0	31514	24.75	4
0	31515	24.75	1
0	31516	24.75	1
0	31580	24.8	1
0	31581	24.8	1
0	31582	24.8	4
0	31583	24.8	1
0	31584	24.8	1
0	31585	24.8	1
0	31586	24.8	1
0	31587	24.8	4
0	31588	24.8	1
0	31589	24.8	1
0	31640	24.85	1
0	31641	24.85	1
0	31642	24.85	4
0	31643	24.85	1
0	31644	24.85	1
0	31685	24.9	1
0	31686	24.9	1
0	31687	24.9	4
0	31688	24.9	1
0	31689	24.9	1
0	31690	24.9	1
0	31691	24.9	1
0	31692	24.9	4
0	31693	24.9	1
0	31694	24.9	1
0	31750	24.95	1
0	31751	24.95	1
0	31752	24.95	4
0	31753	24.95	1
0	31754	24.95	1
0	31795	25	1
0	31796	25	1
0	31797	25	4
0	31798	25	1
0	31799	25	1
0	31800	25	1
0	31801	25	1
0	31802	25	4
0	31803	25	1
0	31804	25	1
0	31855	25.05	1
0	31856	25.05	1
0	31857	25.05	4
0	31858	25.05	1
0	31859	25.05	1
0	31905	25.1	1
0	31906	25.1	1
0	31907	25.1	4
0	31908	25.1	1
0	31909	25.1	1
0	31910	25.1	1
0	31911	25.1	1
0	31912	25.1	4
0	31913	25.1	1
0	31914	25.1	1
0	31970	25.15	1
0	31971	25.15	1
0	31972	25.15	4
0	31973	25.15	1
0	31974	25.15	1
0	32020	25.2	1
0	32021	25.2	1
0	32022	25.2	4
0	32023	25.2	1
0	32024	25.2	1
0	32025	25.2	1
0	32026	25.2	1
0	32027	25.2	4
0	32028	25.2	1
0	32029	25.2	1
0	32080	25.25	1
0	32081	25.25	1
0	32082	25.25	4
0	32083	25.25	1
0	32084	25.25	1
0	32125	25.3	1
0	32126	25.3	1
0	32127	25.3	4
0	32128	25.3	1
0	32129	25.3	1
0	32130	25.3	1
0	32131	25.3	1
0	32132	25.3	4
0	32133	25.3	1
0	32134	25.3	1
0	32207	25.35	1
0	32208	25.35	1
0	32209	25.35	4
0	32210	25.35	1
0	32211	25.35	1
0	32252	25.4	1
0	32253	25.4	1
0	32254	25.4	4
0	32255	25.4	1
0	32256	25.4	1
0	32257	25.4	1
0	32258	25.4	1
0	32259	25.4	4
0	32260	25.4	1
0	32261	25.4	1
0	32312	25.45	1
0	32313	25.45	1
0	32314	25.45	4
0	32315	25.45	1
0	32316	25.45	1
0	32394	25.5	1
0	32395	25.5	1
0	32396	25.5	4
0	32397	25.5	1
0	32398	25.5	1
0	32399	25.5	1
0	32400	25.5	1
0	32401	25.5	4
0	32402	25.5	1
0	32403	25.5	1
0	32460	25.55	1
0	32461	25.55	1
0	32462	25.55	4
0	32463	25.55	1
0	32464	25.55	1
0	32505	25.6	1
0	32506	25.6	1
0	32507	25.6	4
0	32508	25.6	1
0	32509	25.6	1
0	32510	25.6	1
0	32511	25.6	1
0	32512	25.6	4
0	32513	25.6	1
0	32514	25.6	1
0	32565	25.65	1
0	32566	25.65	1
0	32567	25.65	4
0	32568	25.65	1
0	32569	25.65	1
0	32610	25.7	1
0	32611	25.7	1
0	32612	25.7	4
0	32613	25.7	1
0	32614	25.7	1
0	32615	25.7	1
0	32616	25.7	1
0	32617	25.7	4
0	32618	25.7	1
0	32619	25.7	1
0	32675	25.75	1
0	32676	25.75	1
0	32677	25.75	4
0	32678	25.75	1
0	32679	25.75	1
0	32720	25.8	1
0	32721	25.8	1
0	32722	25.8	4
0	32723	25.8	1
0	32724	25.8	1
0	32725	25.8	1
0	32726	25.8	1
0	32727	25.8	4
0	32728	25.8	1
0	32729	25.8	1
0	32780	25.85	1
0	32781	25.85	1
0	32782	25.85	4
0	32783	25.85	1
0	32784	25.85	1
0	32943	25.9	1
0	32944	25.9	1
0	32945	25.9	4
0	32946	25.9	1
0	32947	25.9	1
0	32948	25.9	1
0	32949	25.9	1
0	32950	25.9	4
0	32951	25.9	1
0	32952	25.9	1
0	33042	25.95	1
0	33043	25.95	1
0	33044	25.95	4
0	33045	25.95	1
0	33046	25.95	1
0	33139	26	1
0	33140	26	1
0	33141	26	4
0	33142	26	1
0	33143	26	1
0	33144	26	1
0	33145	26	1
0	33146	26	4
0	33147	26	1
0	33148	26	1
0	33255	26.05	1
0	33256	26.05	1
0	33257	26.05	4
0	33258	26.05	1
0	33259	26.05	1
0	33344	26.1	1
0	33345	26.1	1
0	33346	26.1	4
0	33347	26.1	1
0	33348	26.1	1
0	33349	26.1	1
0	33350	26.1	1
0	33351	26.1	4
0	33352	26.1	1
0	33353	26.1	1
0	33435	26.15	1
0	33436	26.15	1
0	33437	26.15	4
0	33438	26.15	1
0	33439	26.15	1
0	33504	26.2	1
0	33505	26.2	1
0	33506	26.2	4
0	33507	26.2	1
0	33508	26.2	1
0	33509	26.2	1
0	33510	26.2	1
0	33511	26.2	4
0	33512	26.2	1
0	33513	26.2	1
0	33621	26.25	1
0	33622	26.25	1
0	33623	26.25	4
0	33624	26.25	1
0	33625	26.25	1
0	33727	26.3	1
0	33728	26.3	1
0	33729	26.3	4
0	33730	26.3	1
0	33731	26.3	1
0	33732	26.3	1
0	33733	26.3	1
0	33734	26.3	4
0	33735	26.3	1
0	33736	26.3	1
0	33829	26.35	1
0	33830	26.35	1
0	33831	26.35	4
0	33832	26.35	1
0	33833	26.35	1
0	33932	26.4	1
0	33933	26.4	1
0	33934	26.4	4
0	33935	26.4	1
0	33936	26.4	1
0	33937	26.4	1
0	33938	26.4	1
0	33939	26.4	4
0	33940	26.4	1
0	33941	26.4	1
0	34062	26.45	1
0	34063	26.45	1
0	34064	26.45	4
0	34065	26.45	1
0	34066	26.45	1
0	34146	26.5	1
0	34147	26.5	1
0	34148	26.5	4
0	34149	26.5	1
0	34150	26.5	1
0	34151	26.5	1
0	34152	26.5	1
0	34153	26.5	4
0	34154	26.5	1
0	34155	26.5	1
0	34215	26.55	1
0	34216	26.55	1
0	34217	26.55	4
0	34218	26.55	1
0	34219	26.55	1
0	34265	26.6	1
0	34266	26.6	1
0	34267	26.6	4
0	34268	26.6	1
0	34269	26.6	1
0	34270	26.6	1
0	34271	26.6	1
0	34272	26.6	4
0	34273	26.6	1
0	34274	26.6	1
0	34325	26.65	1
0	34326	26.65	1
0	34327	26.65	4
0	34328	26.65	1
0	34329	26.65	1
0	34370	26.7	1
0	34371	26.7	1
0	34372	26.7	4
0	34373	26.7	1
0	34374	26.7	1
0	34375	26.7	1
0	34376	26.7	1
0	34377	26.7	4
0	34378	26.7	1
0	34379	26.7	1
0	34430	26.75	1
0	34431	26.75	1
0	34432	26.75	4
0	34433	26.75	1
0	34434	26.75	1
0	34480	26.8	1
0	34481	26.8	1
0	34482	26.8	4
0	34483	26.8	1
0	34484	26.8	1
0	34485	26.8	1
0	34486	26.8	1
0	34487	26.8	4
0	34488	26.8	1
0	34489	26.8	1
0	34540	26.85	1
0	34541	26.85	1
0	34542	26.85	4
0	34543	26.85	1
0	34544	26.85	1
0	34585	26.9	1
0	34586	26.9	1
0	34587	26.9	4
0	34588	26.9	1
0	34589	26.9	1
0	34590	26.9	1
0	34591	26.9	1
0	34592	26.9	4
0	34593	26.9	1
0	34594	26.9	1
0	34668	26.95	1
0	34669	26.95	1
0	34670	26.95	4
0	34671	26.95	1
0	34672	26.95	1
0	34718	27	1
0	34719	27	1
0	34720	27	4
0	34721	27	1
0	34722	27	1
0	34723	27	1
0	34724	27	1
0	34725	27	4
0	34726	27	1
0	34727	27	1
0	34778	27.05	1
0	34779	27.05	1
0	34780	27.05	4
0	34781	27.05	1
0	34782	27.05	1
0	34845	27.1	1
0	34846	27.1	1
0	34847	27.1	4
0	34848	27.1	1
0	34849	27.1	1
0	34850	27.1	1
0	34851	27.1	1
0	34852	27.1	4
0	34853	27.1	1
0	34854	27.1	1
0	34910	27.15	1
0	34911	27.15	1
0	34912	27.15	4
0	34913	27.15	1
0	34914	27.15	1
0	34955	27.2	1
0	34956	27.2	1
0	34957	27.2	4
0	34958	27.2	1
0	34959	27.2	1
0	34960	27.2	1
0	34961	27.2	1
0	34962	27.2	4
0	34963	27.2	1
0	34964	27.2	1
0	35015	27.25	1
0	35016	27.25	1
0	35017	27.25	4
0	35018	27.25	1
0	35019	27.25	1
0	35060	27.3	1
0	35061	27.3	1
0	35062	27.3	4
0	35063	27.3	1
0	35064	27.3	1
0	35065	27.3	1
0	35066	27.3	1
0	35067	27.3	4
0	35068	27.3	1
0	35069	27.3	1
0	35120	27.35	1
0	35121	27.35	1
0	35122	27.35	4
0	35123	27.35	1
0	35124	27.35	1
0	35165	27.4	1
0	35166	27.4	1
0	35167	27.4	4
0	35168	27.4	1
0	35169	27.4	1
0	35170	27.4	1
0	35171	27.4	1
0	35172	27.4	4
0	35173	27.4	1
0	35174	27.4	1
0	35225	27.45	1
0	35226	27.45	1
0	35227	27.45	4
0	35228	27.45	1
0	35229	27.45	1
0	35293	27.5	1
0	35294	27.5	1
0	35295	27.5	4
0	35296	27.5	1
0	35297	27.5	1
0	35298	27.5	1
0	35299	27.5	1
0	35300	27.5	4
0	35301	27.5	1
0	35302	27.5	1
0	35353	27.55	1
0	35354	27.55	1
0	35355	27.55	4
0	35356	27.55	1
0	35357	27.55	1
0	35398	27.6	1
0	35399	27.6	1
0	35400	27.6	4
0	35401	27.6	1
0	35402	27.6	1
0	35403	27.6	1
0	35404	27.6	1
0	35405	27.6	4
0	35406	27.6	1
0	35407	27.6	1
0	35506	27.65	1
0	35507	27.65	1
0	35508	27.65	4
0	35509	27.65	1
0	35510	27.65	1
0	35583	27.7	1
0	35584	27.7	1
0	35585	27.7	4
0	35586	27.7	1
0	35587	27.7	1
0	35588	27.7	1
0	35589	27.7	1
0	35590	27.7	4
0	35591	27.7	1
0	35592	27.7	1
0	35713	27.75	1
0	35714	27.75	1
0	35715	27.75	4
0	35716	27.75	1
0	35717	27.75	1
0	35810	27.8	1
0	35811	27.8	1
0	35812	27.8	4
0	35813	27.8	1
0	35814	27.8	1
0	35815	27.8	1
0	35816	27.8	1
0	35817	27.8	4
0	35818	27.8	1
0	35819	27.8	1
0	35879	27.85	1
0	35880	27.85	1
0	35881	27.85	4
0	35882	27.85	1
0	35883	27.85	1
0	36030	27.9	1
0	36031	27.9	1
0	36032	27.9	4
0	36033	27.9	1
0	36034	27.9	1
0	36035	27.9	1
0	36036	27.9	1
0	36037	27.9	4
0	36038	27.9	1
0	36039	27.9	1
0	36134	27.95	1
0	36135	27.95	1
0	36136	27.95	4
0	36137	27.95	1
0	36138	27.95	1
0	36213	28	1
0	36214	28	1
0	36215	28	4
0	36216	28	1
0	36217	28	1
0	36218	28	1
0	36219	28	1
0	36220	28	4
0	36221	28	1
0	36222	28	1
0	36304	28.05	1
0	36305	28.05	1
0	36306	28.05	4
0	36307	28.05	1
0	36308	28.05	1
0	36403	28.1	1
0	36404	28.1	1
0	36405	28.1	4
0	36406	28.1	1
0	36407	28.1	1
0	36408	28.1	1
0	36409	28.1	1
0	36410	28.1	4
0	36411	28.1	1
0	36412	28.1	1
0	36490	28.15	1
0	36491	28.15	1
0	36492	28.15	4
0	36493	28.15	1
0	36494	28.15	1
0	36573	28.2	1
0	36574	28.2	1
0	36575	28.2	4
0	36576	28.2	1
0	36577	28.2	1
0	36578	28.2	1
0	36579	28.2	1
0	36580	28.2	4
0	36581	28.2	1
0	36582	28.2	1
0	36680	28.25	1
0	36681	28.25	1
0	36682	28.25	4
0	36683	28.25	1
0	36684	28.25	1
0	36788	28.3	1
0	36789	28.3	1
0	36790	28.3	4
0	36791	28.3	1
0	36792	28.3	1
0	36793	28.3	1
0	36794	28.3	1
0	36795	28.3	4
0	36796	28.3	1
0	36797	28.3	1
0	36942	28.35	1
0	36943	28.35	1
0	36944	28.35	4
0	36945	28.35	1
0	36946	28.35	1
0	37009	28.4	1
0	37010	28.4	1
0	37011	28.4	4
0	37012	28.4	1
0	37013	28.4	1
0	37014	28.4	1
0	37015	28.4	1
0	37016	28.4	4
0	37017	28.4	1
0	37018	28.4	1
0	37158	28.45	1
0	37159	28.45	1
0	37160	28.45	4
0	37161	28.45	1
0	37162	28.45	1
0	37229	28.5	1
0	37230	28.5	1
0	37231	28.5	4
0	37232	28.5	1
0	37233	28.5	1
0	37234	28.5	1
0	37235	28.5	1
0	37236	28.5	4
0	37237	28.5	1
0	37238	28.5	1
0	37361	28.55	1
0	37362	28.55	1
0	37363	28.55	4
0	37364	28.55	1
0	37365	28.55	1
0	37453	28.6	1
0	37454	28.6	1
0	37455	28.6	4
0	37456	28.6	1
0	37457	28.6	1
0	37458	28.6	1
0	37459	28.6	1
0	37460	28.6	4
0	37461	28.6	1
0	37462	28.6	1
0	37521	28.65	1
0	37522	28.65	1
0	37523	28.65	4
0	37524	28.65	1
0	37525	28.65	1
0	37566	28.7	1
0	37567	28.7	1
0	37568	28.7	4
0	37569	28.7	1
0	37570	28.7	1
0	37571	28.7	1
0	37572	28.7	1
0	37573	28.7	4
0	37574	28.7	1
0	37575	28.7	1
0	37631	28.75	1
0	37632	28.75	1
0	37633	28.75	4
0	37634	28.75	1
0	37635	28.75	1
0	37676	28.8	1
0	37677	28.8	1
0	37678	28.8	4
0	37679	28.8	1
0	37680	28.8	1
0	37681	28.8	1
0	37682	28.8	1
0	37683	28.8	4
0	37684	28.8	1
0	37685	28.8	1
0	37815	28.85	1
0	37816	28.85	1
0	37817	28.85	4
0	37818	28.85	1
0	37819	28.85	1
0	37914	28.9	1
0	37915	28.9	1
0	37916	28.9	4
0	37917	28.9	1
0	37918	28.9	1
0	37919	28.9	1
0	37920	28.9	1
0	37921	28.9	4
0	37922	28.9	1
0	37923	28.9	1
0	38016	28.95	1
0	38017	28.95	1
0	38018	28.95	4
0	38019	28.95	1
0	38020	28.95	1
0	38122	29	1
0	38123	29	1
0	38124	29	4
0	38125	29	1
0	38126	29	1
0	38127	29	1
0	38128	29	1
0	38129	29	4
0	38130	29	1
0	38131	29	1
0	38216	29.05	1
0	38217	29.05	1
0	38218	29.05	4
0	38219	29.05	1
0	38220	29.05	1
0	38318	29.1	1
0	38319	29.1	1
0	38320	29.1	4
0	38321	29.1	1
0	38322	29.1	1
0	38323	29.1	1
0	38324	29.1	1
0	38325	29.1	4
0	38326	29.1	1
0	38327	29.1	1
0	38402	29.15	1
0	38403	29.15	1
0	38404	29.15	4
0	38405	29.15	1
0	38406	29.15	1
0	38481	29.2	1
0	38482	29.2	1
0	38483	29.2	4
0	38484	29.2	1
0	38485	29.2	1
0	38486	29.2	1
0	38487	29.2	1
0	38488	29.2	4
0	38489	29.2	1
0	38490	29.2	1
0	38546	29.25	1
0	38547	29.25	1
0	38548	29.25	4
0	38549	29.25	1
0	38550	29.25	1
0	38591	29.3	1
0	38592	29.3	1
0	38593	29.3	4
0	38594	29.3	1
0	38595	29.3	1
0	38596	29.3	1
0	38597	29.3	1
0	38598	29.3	4
0	38599	29.3	1
0	38600	29.3	1
0	38651	29.35	1
0	38652	29.35	1
0	38653	29.35	4
0	38654	29.35	1
0	38655	29.35	1
0	38713	29.4	1
0	38714	29.4	1
0	38715	29.4	4
0	38716	29.4	1
0	38717	29.4	1
0	38718	29.4	1
0	38719	29.4	1
0	38720	29.4	4
0	38721	29.4	1
0	38722	29.4	1
0	38773	29.45	1
0	38774	29.45	1
0	38775	29.45	4
0	38776	29.45	1
0	38777	29.45	1
0	38818	29.5	1
0	38819	29.5	1
0	38820	29.5	4
0	38821	29.5	1
0	38822	29.5	1
0	38823	29.5	1
0	38824	29.5	1
0	38825	29.5	4
0	38826	29.5	1
0	38827	29.5	1
0	39008	29.55	1
0	39009	29.55	1
0	39010	29.55	4
0	39011	29.55	1
0	39012	29.55	1
0	39095	29.6	1
0	39096	29.6	1
0	39097	29.6	4
0	39098	29.6	1
0	39099	29.6	1
0	39100	29.6	1
0	39101	29.6	1
0	39102	29.6	4
0	39103	29.6	1
0	39104	29.6	1
0	39184	29.65	1
0	39185	29.65	1
0	39186	29.65	4
0	39187	29.65	1
0	39188	29.65	1
0	39241	29.7	1
0	39242	29.7	1
0	39243	29.7	4
0	39244	29.7	1
0	39245	29.7	1
0	39246	29.7	1
0	39247	29.7	1
0	39248	29.7	4
0	39249	29.7	1
0	39250	29.7	1
0	39350	29.75	1
0	39351	29.75	1
0	39352	29.75	4
0	39353	29.75	1
0	39354	29.75	1
0	39427	29.8	1
0	39428	29.8	1
0	39429	29.8	4
0	39430	29.8	1
0	39431	29.8	1
0	39432	29.8	1
0	39433	29.8	1
0	39434	29.8	4
0	39435	29.8	1
0	39436	29.8	1
0	39506	29.85	1
0	39507	29.85	1
0	39508	29.85	4
0	39509	29.85	1
0	39510	29.85	1
0	39603	29.9	1
0	39604	29.9	1
0	39605	29.9	4
0	39606	29.9	1
0	39607	29.9	1
0	39608	29.9	1
0	39609	29.9	1
0	39610	29.9	4
0	39611	29.9	1
0	39612	29.9	1
0	39736	29.95	1
0	39737	29.95	1
0	39738	29.95	4
0	39739	29.95	1
0	39740	29.95	1
0	39823	30	1
0	39824	30	1
0	39825	30	4
0	39826	30	1
0	39827	30	1
0	39828	30	1
0	39829	30	1
0	39830	30	4
0	39831	30	1
0	39832	30	1
0	39940	30.05	1
0	39941	30.05	1
0	39942	30.05	4
0	39943	30.05	1
0	39944	30.05	1
0	40040	30.1	1
0	40041	30.1	1
0	40042	30.1	4
0	40043	30.1	1
0	40044	30.1	1
0	40045	30.1	1
0	40046	30.1	1
0	40047	30.1	4
0	40048	30.1	1
0	40049	30.1	1
0	40228	30.15	1
0	40229	30.15	1
0	40230	30.15	4
0	40231	30.15	1
0	40232	30.15	1
0	40326	30.2	1
0	40327	30.2	1
0	40328	30.2	4
0	40329	30.2	1
0	40330	30.2	1
0	40331	30.2	1
0	40332	30.2	1
0	40333	30.2	4
0	40334	30.2	1
0	40335	30.2	1
0	40430	30.25	1
0	40431	30.25	1
0	40432	30.25	4
0	40433	30.25	1
0	40434	30.25	1
0	40528	30.3	1
0	40529	30.3	1
0	40530	30.3	4
0	40531	30.3	1
0	40532	30.3	1
0	40533	30.3	1
0	40534	30.3	1
0	40535	30.3	4
0	40536	30.3	1
0	40537	30.3	1
0	40649	30.35	1
0	40650	30.35	1
0	40651	30.35	4
0	40652	30.35	1
0	40653	30.35	1
0	40713	30.4	1
0	40714	30.4	1
0	40715	30.4	4
0	40716	30.4	1
0	40717	30.4	1
0	40718	30.4	1
0	40719	30.4	1
0	40720	30.4	4
0	40721	30.4	1
0	40722	30.4	1
0	40825	30.45	1
0	40826	30.45	1
0	40827	30.45	4
0	40828	30.45	1
0	40829	30.45	1
0	40908	30.5	1
0	40909	30.5	1
0	40910	30.5	4
0	40911	30.5	1
0	40912	30.5	1
0	40913	30.5	1
0	40914	30.5	1
0	40915	30.5	4
0	40916	30.5	1
0	40917	30.5	1
0	41030	30.55	1
0	41031	30.55	1
0	41032	30.55	4
0	41033	30.55	1
0	41034	30.55	1
0	41127	30.6	1
0	41128	30.6	1
0	41129	30.6	4
0	41130	30.6	1
0	41131	30.6	1
0	41132	30.6	1
0	41133	30.6	1
0	41134	30.6	4
0	41135	30.6	1
0	41136	30.6	1
0	41358	30.65	1
0	41359	30.65	1
0	41360	30.65	4
0	41361	30.65	1
0	41362	30.65	1
0	41454	30.7	1
0	41455	30.7	1
0	41456	30.7	4
0	41457	30.7	1
0	41458	30.7	1
0	41459	30.7	1
0	41460	30.7	1
0	41461	30.7	4
0	41462	30.7	1
0	41463	30.7	1
0	41619	30.75	1
0	41620	30.75	1
0	41621	30.75	4
0	41622	30.75	1
0	41623	30.75	1
0	41722	30.8	1
0	41723	30.8	1
0	41724	30.8	4
0	41725	30.8	1
0	41726	30.8	1
0	41727	30.8	1
0	41728	30.8	1
0	41729	30.8	4
0	41730	30.8	1
0	41731	30.8	1
0	41882	30.85	1
0	41883	30.85	1
0	41884	30.85	4
0	41885	30.85	1
0	41886	30.85	1
0	42008	30.9	1
0	42009	30.9	1
0	42010	30.9	4
0	42011	30.9	1
0	42012	30.9	1
0	42013	30.9	1
0	42014	30.9	1
0	42015	30.9	4
0	42016	30.9	1
0	42017	30.9	1
0	42098	30.95	1
0	42099	30.95	1
0	42100	30.95	4
0	42101	30.95	1
0	42102	30.95	1
0	42204	31	1
0	42205	31	1
0	42206	31	4
0	42207	31	1
0	42208	31	1
0	42209	31	1
0	42210	31	1
0	42211	31	4
0	42212	31	1
0	42213	31	1
0	42308	31.05	1
0	42309	31.05	1
0	42310	31.05	4
0	42311	31.05	1
0	42312	31.05	1
0	42395	31.1	1
0	42396	31.1	1
0	42397	31.1	4
0	42398	31.1	1
0	42399	31.1	1
0	42400	31.1	1
0	42401	31.1	1
0	42402	31.1	4
0	42403	31.1	1
0	42404	31.1	1
0	42497	31.15	1
0	42498	31.15	1
0	42499	31.15	4
0	42500	31.15	1
0	42501	31.15	1
0	42584	31.2	1
0	42585	31.2	1
0	42586	31.2	4
0	42587	31.2	1
0	42588	31.2	1
0	42589	31.2	1
0	42590	31.2	1
0	42591	31.2	4
0	42592	31.2	1
0	42593	31.2	1
0	42742	31.25	1
0	42743	31.25	1
0	42744	31.25	4
0	42745	31.25	1
0	42746	31.25	1
0	42824	31.3	1
0	42825	31.3	1
0	42826	31.3	4
0	42827	31.3	1
0	42828	31.3	1
0	42829	31.3	1
0	42830	31.3	1
0	42831	31.3	4
0	42832	31.3	1
0	42833	31.3	1
0	42933	31.35	1
0	42934	31.35	1
0	42935	31.35	4
0	42936	31.35	1
0	42937	31.35	1
0	43056	31.4	1
0	43057	31.4	1
0	43058	31.4	4
0	43059	31.4	1
0	43060	31.4	1
0	43061	31.4	1
0	43062	31.4	1
0	43063	31.4	4
0	43064	31.4	1
0	43065	31.4	1
0	43167	31.45	1
0	43168	31.45	1
0	43169	31.45	4
0	43170	31.45	1
0	43171	31.45	1
0	43249	31.5	1
0	43250	31.5	1
0	43251	31.5	4
0	43252	31.5	1
0	43253	31.5	1
0	43254	31.5	1
0	43255	31.5	1
0	43256	31.5	4
0	43257	31.5	1
0	43258	31.5	1
0	43359	31.55	1
0	43360	31.55	1
0	43361	31.55	4
0	43362	31.55	1
0	43363	31.55	1
0	43428	31.6	1
0	43429	31.6	1
0	43430	31.6	4
0	43431	31.6	1
0	43432	31.6	1
0	43433	31.6	1
0	43434	31.6	1
0	43435	31.6	4
0	43436	31.6	1
0	43437	31.6	1
0	43506	31.65	1
0	43507	31.65	1
0	43508	31.65	4
0	43509	31.65	1
0	43510	31.65	1
0	43551	31.7	1
0	43552	31.7	1
0	43553	31.7	4
0	43554	31.7	1
0	43555	31.7	1
0	43556	31.7	1
0	43557	31.7	1
0	43558	31.7	4
0	43559	31.7	1
0	43560	31.7	1
0	43611	31.75	1
0	43612	31.75	1
0	43613	31.75	4
0	43614	31.75	1
0	43615	31.75	1
0	43656	31.8	1
0	43657	31.8	1
0	43658	31.8	4
0	43659	31.8	1
0	43660	31.8	1
0	43661	31.8	1
0	43662	31.8	1
0	43663	31.8	4
0	43664	31.8	1
0	43665	31.8	1
0	43733	31.85	1
0	43734	31.85	1
0	43735	31.85	4
0	43736	31.85	1
0	43737	31.85	1
0	43778	31.9	1
0	43779	31.9	1
0	43780	31.9	4
0	43781	31.9	1
0	43782	31.9	1
0	43783	31.9	1
0	43784	31.9	1
0	43785	31.9	4
0	43786	31.9	1
0	43787	31.9	1
0	43855	31.95	1
0	43856	31.95	1
0	43857	31.95	4
0	43858	31.95	1
0	43859	31.95	1
0	43963	32	1
0	43964	32	1
0	43965	32	4
0	43966	32	1
0	43967	32	1
0	43968	32	1
0	43969	32	1
0	43970	32	4
0	43971	32	1
0	43972	32	1
0	44060	32.05	1
0	44061	32.05	1
0	44062	32.05	4
0	44063	32.05	1
0	44064	32.05	1
0	44200	32.1	1
0	44201	32.1	1
0	44202	32.1	4
0	44203	32.1	1
0	44204	32.1	1
0	44205	32.1	1
0	44206	32.1	1
0	44207	32.1	4
0	44208	32.1	1
0	44209	32.1	1
0	44282	32.15	1
0	44283	32.15	1
0	44284	32.15	4
0	44285	32.15	1
0	44286	32.15	1
0	44327	32.2	1
0	44328	32.2	1
0	44329	32.2	4
0	44330	32.2	1
0	44331	32.2	1
0	44332	32.2	1
0	44333	32.2	1
0	44334	32.2	4
0	44335	32.2	1
0	44336	32.2	1
0	44387	32.25	1
0	44388	32.25	1
0	44389	32.25	4
0	44390	32.25	1
0	44391	32.25	1
0	44432	32.3	1
0	44433	32.3	1
0	44434	32.3	4
0	44435	32.3	1
0	44436	32.3	1
0	44437	32.3	1
0	44438	32.3	1
0	44439	32.3	4
0	44440	32.3	1
0	44441	32.3	1
0	44509	32.35	1
0	44510	32.35	1
0	44511	32.35	4
0	44512	32.35	1
0	44513	32.35	1
0	44571	32.4	1
0	44572	32.4	1
0	44573	32.4	4
0	44574	32.4	1
0	44575	32.4	1
0	44576	32.4	1
0	44577	32.4	1
0	44578	32.4	4
0	44579	32.4	1
0	44580	32.4	1
0	44631	32.45	1
0	44632	32.45	1
0	44633	32.45	4
0	44634	32.45	1
0	44635	32.45	1
0	44698	32.5	1
0	44699	32.5	1
0	44700	32.5	4
0	44701	32.5	1
0	44702	32.5	1
0	44703	32.5	1
0	44704	32.5	1
0	44705	32.5	4
0	44706	32.5	1
0	44707	32.5	1
0	44775	32.55	1
0	44776	32.55	1
0	44777	32.55	4
0	44778	32.55	1
0	44779	32.55	1
0	44820	32.6	1
0	44821	32.6	1
0	44822	32.6	4
0	44823	32.6	1
0	44824	32.6	1
0	44825	32.6	1
0	44826	32.6	1
0	44827	32.6	4
0	44828	32.6	1
0	44829	32.6	1
0	44885	32.65	1
0	44886	32.65	1
0	44887	32.65	4
0	44888	32.65	1
0	44889	32.65	1
0	44930	32.7	1
0	44931	32.7	1
0	44932	32.7	4
0	44933	32.7	1
0	44934	32.7	1
0	44935	32.7	1
0	44936	32.7	1
0	44937	32.7	4
0	44938	32.7	1
0	44939	32.7	1
0	44990	32.75	1
0	44991	32.75	1
0	44992	32.75	4
0	44993	32.75	1
0	44994	32.75	1
0	45035	32.8	1
0	45036	32.8	1
0	45037	32.8	4
0	45038	32.8	1
0	45039	32.8	1
0	45040	32.8	1
0	45041	32.8	1
0	45042	32.8	4
0	45043	32.8	1
0	45044	32.8	1
0	45095	32.85	1
0	45096	32.85	1
0	45097	32.85	4
0	45098	32.85	1
0	45099	32.85	1
0	45157	32.9	1
0	45158	32.9	1
0	45159	32.9	4
0	45160	32.9	1
0	45161	32.9	1
0	45162	32.9	1
0	45163	32.9	1
0	45164	32.9	4
0	45165	32.9	1
0	45166	32.9	1
0	45234	32.95	1
0	45235	32.95	1
0	45236	32.95	4
0	45237	32.95	1
0	45238	32.95	1
0	45284	33	1
0	45285	33	1
0	45286	33	4
0	45287	33	1
0	45288	33	1
0	45289	33	1
0	45290	33	1
0	45291	33	4
0	45292	33	1
0	45293	33	1
0	45361	33.05	1
0	45362	33.05	1
0	45363	33.05	4
0	45364	33.05	1
0	45365	33.05	1
0	45428	33.1	1
0	45429	33.1	1
0	45430	33.1	4
0	45431	33.1	1
0	45432	33.1	1
0	45433	33.1	1
0	45434	33.1	1
0	45435	33.1	4
0	45436	33.1	1
0	45437	33.1	1
0	45494	33.15	1
0	45495	33.15	1
0	45496	33.15	4
0	45497	33.15	1
0	45498	33.15	1
0	45539	33.2	1
0	45540	33.2	1
0	45541	33.2	4
0	45542	33.2	1
0	45543	33.2	1
0	45544	33.2	1
0	45545	33.2	1
0	45546	33.2	4
0	45547	33.2	1
0	45548	33.2	1
0	45599	33.25	1
0	45600	33.25	1
0	45601	33.25	4
0	45602	33.25	1
0	45603	33.25	1
0	45644	33.3	1
0	45645	33.3	1
0	45646	33.3	4
0	45647	33.3	1
0	45648	33.3	1
0	45649	33.3	1
0	45650	33.3	1
0	45651	33.3	4
0	45652	33.3	1
0	45653	33.3	1
0	45704	33.35	1
0	45705	33.35	1
0	45706	33.35	4
0	45707	33.35	1
0	45708	33.35	1
0	45749	33.4	1
0	45750	33.4	1
0	45751	33.4	4
0	45752	33.4	1
0	45753	33.4	1
0	45754	33.4	1
0	45755	33.4	1
0	45756	33.4	4
0	45757	33.4	1
0	45758	33.4	1
0	45832	33.45	1
0	45833	33.45	1
0	45834	33.45	4
0	45835	33.45	1
0	45836	33.45	1
0	45882	33.5	1
0	45883	33.5	1
0	45884	33.5	4
0	45885	33.5	1
0	45886	33.5	1
0	45887	33.5	1
0	45888	33.5	1
0	45889	33.5	4
0	45890	33.5	1
0	45891	33.5	1
0	45942	33.55	1
0	45943	33.55	1
0	45944	33.55	4
0	45945	33.55	1
0	45946	33.55	1
0	45992	33.6	1
0	45993	33.6	1
0	45994	33.6	4
0	45995	33.6	1
0	45996	33.6	1
0	45997	33.6	1
0	45998	33.6	1
0	45999	33.6	4
0	46000	33.6	1
0	46001	33.6	1
0	46052	33.65	1
0	46053	33.65	1
0	46054	33.65	4
0	46055	33.65	1
0	46056	33.65	1
0	46102	33.7	1
0	46103	33.7	1
0	46104	33.7	4
0	46105	33.7	1
0	46106	33.7	1
0	46107	33.7	1
0	46108	33.7	1
0	46109	33.7	4
0	46110	33.7	1
0	46111	33.7	1
0	46162	33.75	1
0	46163	33.75	1
0	46164	33.75	4
0	46165	33.75	1
0	46166	33.75	1
0	46207	33.8	1
0	46208	33.8	1
0	46209	33.8	4
0	46210	33.8	1
0	46211	33.8	1
0	46212	33.8	1
0	46213	33.8	1
0	46214	33.8	4
0	46215	33.8	1
0	46216	33.8	1
0	46267	33.85	1
0	46268	33.85	1
0	46269	33.85	4
0	46270	33.85	1
0	46271	33.85	1
0	46312	33.9	1
0	46313	33.9	1
0	46314	33.9	4
0	46315	33.9	1
0	46316	33.9	1
0	46317	33.9	1
0	46318	33.9	1
0	46319	33.9	4
0	46320	33.9	1
0	46321	33.9	1
0	46372	33.95	1
0	46373	33.95	1
0	46374	33.95	4
0	46375	33.95	1
0	46376	33.95	1
0	46417	34	1
0	46418	34	1
0	46419	34	4
0	46420	34	1
0	46421	34	1
0	46422	34	1
0	46423	34	1
0	46424	34	4
0	46425	34	1
0	46426	34	1
0	46477	34.05	1
0	46478	34.05	1
0	46479	34.05	4
0	46480	34.05	1
0	46481	34.05	1
0	46532	34.1	1
0	46533	34.1	1
0	46534	34.1	4
0	46535	34.1	1
0	46536	34.1	1
0	46537	34.1	1
0	46538	34.1	1
0	46539	34.1	4
0	46540	34.1	1
0	46541	34.1	1
0	46598	34.15	1
0	46599	34.15	1
0	46600	34.15	4
0	46601	34.15	1
0	46602	34.15	1
0	46643	34.2	1
0	46644	34.2	1
0	46645	34.2	4
0	46646	34.2	1
0	46647	34.2	1
0	46648	34.2	1
0	46649	34.2	1
0	46650	34.2	4
0	46651	34.2	1
0	46652	34.2	1
0	46720	34.25	1
0	46721	34.25	1
0	46722	34.25	4
0	46723	34.25	1
0	46724	34.25	1
0	46765	34.3	1
0	46766	34.3	1
0	46767	34.3	4
0	46768	34.3	1
0	46769	34.3	1
0	46770	34.3	1
0	46771	34.3	1
0	46772	34.3	4
0	46773	34.3	1
0	46774	34.3	1
0	46825	34.35	1
0	46826	34.35	1
0	46827	34.35	4
0	46828	34.35	1
0	46829	34.35	1
0	47041	34.4	1
0	47042	34.4	1
0	47043	34.4	4
0	47044	34.4	1
0	47045	34.4	1
0	47046	34.4	1
0	47047	34.4	1
0	47048	34.4	4
0	47049	34.4	1
0	47050	34.4	1
0	47145	34.45	1
0	47146	34.45	1
0	47147	34.45	4
0	47148	34.45	1
0	47149	34.45	1
0	47240	34.5	1
0	47241	34.5	1
0	47242	34.5	4
0	47243	34.5	1
0	47244	34.5	1
0	47245	34.5	1
0	47246	34.5	1
0	47247	34.5	4
0	47248	34.5	1
0	47249	34.5	1
0	47344	34.55	1
0	47345	34.55	1
0	47346	34.55	4
0	47347	34.55	1
0	47348	34.55	1
0	47446	34.6	1
0	47447	34.6	1
0	47448	34.6	4
0	47449	34.6	1
0	47450	34.6	1
0	47451	34.6	1
0	47452	34.6	1
0	47453	34.6	4
0	47454	34.6	1
0	47455	34.6	1
0	47572	34.65	1
0	47573	34.65	1
0	47574	34.65	4
0	47575	34.65	1
0	47576	34.65	1
0	47669	34.7	1
0	47670	34.7	1
0	47671	34.7	4
0	47672	34.7	1
0	47673	34.7	1
0	47674	34.7	1
0	47675	34.7	1
0	47676	34.7	4
0	47677	34.7	1
0	47678	34.7	1
0	47773	34.75	1
0	47774	34.75	1
0	47775	34.75	4
0	47776	34.75	1
0	47777	34.75	1
0	47892	34.8	1
0	47893	34.8	1
0	47894	34.8	4
0	47895	34.8	1
0	47896	34.8	1
0	47897	34.8	1
0	47898	34.8	1
0	47899	34.8	4
0	47900	34.8	1
0	47901	34.8	1
0	47993	34.85	1
0	47994	34.85	1
0	47995	34.85	4
0	47996	34.85	1
0	47997	34.85	1
0	48093	34.9	1
[...]
3	139457	95.08085662454	187530
3	139552	95.10853662454	187671
3	139578	95.12237662454	187812
3	139640	95.15005662454	187953
3	140513	95.89781662454	188094
3	140594	95.92549662454	188235
3	140662	95.95317662454	188376
3	140684	95.96701662454	188517
3	140970	96.14781662454	188658
3	141028	96.16165662454	188799
3	141041	96.17549662454	188940
3	141059	96.18933662454	189081
3	141137	96.20317662454	189222
3	141158	96.23085662454	189363
3	141176	96.24469662454	189504
3	141239	96.25853662454	189645
3	141252	96.27237662454	189786
3	141270	96.28621662454	189927
3	141343	96.30005662454	190068
3	141784	96.69781662454	190209
3	141864	96.71165662454	190350
3	141892	96.72549662454	190491
3	141905	96.73933662454	190632
3	142557	97.23397662454	190773
3	142624	97.26165662454	190914
3	142641	97.28933662454	191055
3	142723	97.31701662454	191196
3	142742	97.33085662454	191337
3	142761	97.34469662454	191478
3	142828	97.37237662454	191619
3	142847	97.38621662454	191760
3	142926	97.40005662454	191901
3	142943	97.42773662454	192042
3	143005	97.45541662454	192183
3	143022	97.48309662454	192324
3	143104	97.51077662454	192465
3	143178	97.59381662454	192606
3	143536	97.78397662454	192747
3	143538	97.78397662454	192888
3	143557	97.79781662454	193029
3	143642	97.81165662454	193170
3	143644	97.81165662454	193311
3	143671	97.82549662454	193452
3	143673	97.82549662454	193593
3	143697	97.83933662454	193734
3	143752	97.85317662454	193875
3	143840	97.90853662454	194016
3	143857	97.93621662454	194157
3	143924	97.96389662454	194298
3	143938	97.97773662454	194439
3	143957	97.99157662454	194580
3	144036	98.00541662454	194721
3	144058	98.03309662454	194862
3	145709	99.39781662454	195003
3	145822	99.43397662454	195144
3	145840	99.44781662454	195285
3	147151	100.48397662454	195426
3	147170	100.49781662454	195567
3	147247	100.52549662454	195708
3	147266	100.53933662454	195849
3	147325	100.55317662454	195990
3	147342	100.58085662454	196131
3	147361	100.59469662454	196272
3	147435	100.60853662454	196413
3	147449	100.62237662454	196554
3	147463	100.63621662454	196695
3	147533	100.67773662454	196836
3	147552	100.69157662454	196977
3	147631	100.70541662454	197118
3	147648	100.73309662454	197259
3	148046	101.03397662454	197400
3	148108	101.06165662454	197541
3	148127	101.07549662454	197682
3	148221	101.13085662454	197823
3	148296	101.18621662454	197964
3	149780	102.44781662454	198105
3	149842	102.47549662454	198246
3	149922	102.51701662454	198387
3	149941	102.53085662454	198528
3	149960	102.54469662454	198669
3	150026	102.55853662454	198810
3	150598	103.01165662454	198951
3	150642	103.03397662454	199092
3	150813	103.13397662454	199233
3	150876	103.16165662454	199374
3	150913	103.18933662454	199515
3	150991	103.20317662454	199656
3	151009	103.21701662454	199797
3	151673	103.71165662454	199938
3	151707	103.72549662454	200079
3	151720	103.73933662454	200220
3	153113	104.88397662454	200361
3	153132	104.89781662454	200502
3	153209	104.92549662454	200643
3	153276	104.95317662454	200784
3	153295	104.96701662454	200925
3	153380	105.00853662454	201066
3	153394	105.02237662454	201207
3	153464	105.06389662454	201348
3	153483	105.07773662454	201489
3	154216	105.64781662454	201630
3	154949	106.18397662454	201771
3	154967	106.19781662454	201912
3	155040	106.21165662454	202053
3	155053	106.22549662454	202194
3	155071	106.23933662454	202335
3	155232	106.31165662454	202476
3	156092	107.03397662454	202617
3	156154	107.06165662454	202758
3	156173	107.07549662454	202899
3	156192	107.08933662454	203040
3	156277	107.10317662454	203181
3	156296	107.11701662454	203322
3	156318	107.14469662454	203463
3	156394	107.17237662454	203604
3	156476	107.20005662454	203745
3	156490	107.21389662454	203886
3	156504	107.22773662454	204027
3	156518	107.24157662454	204168
3	156582	107.25541662454	204309
3	156601	107.26925662454	204450
3	157268	107.81165662454	204591
3	157289	107.83933662454	204732
3	157352	107.85317662454	204873
3	157798	108.18397662454	205014
3	157816	108.19781662454	205155
3	157894	108.21165662454	205296
3	164236	113.73397662454	205437
3	164255	113.74781662454	205578
3	164319	113.76165662454	205719
3	164338	113.77549662454	205860
3	164357	113.78933662454	206001
3	164438	113.80317662454	206142
3	164452	113.81701662454	206283
3	164471	113.83085662454	206424
3	164490	113.84469662454	206565
3	164560	113.88621662454	206706
3	164640	113.92773662454	206847
3	164659	113.94157662454	206988
3	164718	113.95541662454	207129
3	164732	113.96925662454	207270
3	164749	113.99693662454	207411
3	164831	114.03845662454	207552
3	165149	114.23397662454	207693
3	165162	114.24781662454	207834
3	165282	114.27549662454	207975
3	165295	114.28933662454	208116
3	165305	114.29819324908	208257
3	165379	114.30317662454	208398
3	165395	114.32587324908	208539
3	165414	114.33085662454	208680
3	165424	114.33971324908	208821
3	165488	114.35355324908	208962
3	165507	114.36739324908	209103
3	165526	114.38123324908	209244
3	165540	114.39507324908	209385
3	165620	114.43659324908	209526
3	165690	114.47811324908	209667
3	165709	114.49195324908	209808
3	165788	114.50579324908	209949
3	167100	115.59781662454	210090
3	167178	115.61165662454	210231
3	167191	115.62549662454	210372
3	167312	115.69469662454	210513
3	167330	115.69781662454	210654
3	167408	115.70853662454	210795
3	167426	115.71165662454	210936
3	167447	115.72549662454	211077
3	167463	115.73933662454	211218
3	167526	115.75317662454	211359
3	167544	115.76701662454	211500
3	167562	115.78085662454	211641
3	167638	115.80853662454	211782
3	168054	116.14781662454	211923
3	168119	116.16165662454	212064
3	168147	116.17549662454	212205
3	168234	116.23085662454	212346
3	168579	116.44781662454	212487
3	168638	116.46165662454	212628
3	168657	116.47549662454	212769
3	168741	116.50317662454	212910
3	168760	116.51701662454	213051
3	168782	116.54469662454	213192
3	168852	116.58621662454	213333
3	168926	116.60005662454	213474
3	168940	116.61389662454	213615
3	169010	116.65541662454	213756
3	169099	116.73845662454	213897
3	169163	116.75229662454	214038
3	169177	116.76613662454	214179
3	169191	116.77997662454	214320
3	169210	116.79381662454	214461
3	169300	116.83533662454	214602
3	169319	116.84917662454	214743
3	169827	117.18397662454	214884
3	169904	117.21165662454	215025
3	169923	117.22549662454	215166
3	169942	117.23933662454	215307
3	170008	117.25317662454	215448
3	170039	117.26701662454	215589
3	170053	117.28085662454	215730
3	170072	117.29469662454	215871
3	170151	117.30853662454	216012
3	170227	117.37773662454	216153
3	170311	117.40541662454	216294
3	170330	117.41925662454	216435
3	170349	117.43309662454	216576
3	170368	117.44693662454	216717
3	170432	117.46077662454	216858
3	170451	117.47461662454	216999
3	170470	117.48845662454	217140
3	172529	119.20245662454	217281
3	172545	119.23013662454	217422
3	172558	119.24397662454	217563
3	172616	119.25781662454	217704
3	172634	119.27165662454	217845
3	172647	119.28549662454	217986
3	173009	119.53397662454	218127
3	173077	119.56165662454	218268
3	173116	119.57549662454	218409
3	173134	119.58933662454	218550
3	173209	119.60317662454	218691
3	173231	119.61701662454	218832
3	173261	119.63085662454	218973
3	173279	119.64469662454	219114
3	173495	119.76165662454	219255
3	173514	119.78933662454	219396
3	173595	119.81701662454	219537
3	177480	123.13397662454	219678
3	177494	123.14781662454	219819
3	177561	123.17549662454	219960
3	177575	123.18933662454	220101
3	177665	123.23085662454	220242
3	177679	123.24469662454	220383
3	177740	123.25853662454	220524
3	177766	123.27237662454	220665
3	177848	123.30005662454	220806
3	177865	123.32773662454	220947
3	177884	123.34157662454	221088
3	177950	123.35541662454	221229
3	177964	123.36925662454	221370
3	177983	123.38309662454	221511
3	178002	123.39693662454	221652
3	178132	123.45229662454	221793
3	178166	123.47997662454	221934
3	178245	123.50765662454	222075
3	178262	123.52149662454	222216
3	178276	123.53533662454	222357
3	178945	124.08397662454	222498
3	179037	124.11165662454	222639
3	179050	124.12549662454	222780
3	179116	124.15317662454	222921
3	179134	124.16701662454	223062
3	180226	125.08397662454	223203
3	180316	125.12549662454	223344
3	180380	125.16701662454	223485
3	180398	125.18085662454	223626
3	180416	125.19469662454	223767
3	180511	125.22237662454	223908
3	182642	127.02549662454	224049
3	182655	127.03933662454	224190
3	183966	128.08397662454	224331
3	183979	128.08861662454	224472
3	183997	128.09781662454	224613
3	184080	128.10245662454	224754
3	184101	128.11629662454	224895
3	184125	128.13933662454	225036
3	184143	128.14397662454	225177
3	184206	128.15781662454	225318
3	184224	128.17165662454	225459
3	184306	128.22701662454	225600
3	184324	128.24085662454	225741
3	186081	129.68397662454	225882
3	186099	129.69781662454	226023
3	186177	129.71165662454	226164
3	186195	129.72549662454	226305
3	186815	130.23397662454	226446
3	186881	130.26165662454	226587
3	186894	130.27549662454	226728
3	186973	130.31701662454	226869
3	186991	130.33085662454	227010
3	187743	130.88397662454	227151
3	187761	130.89781662454	227292
3	187842	130.92549662454	227433
3	187855	130.93933662454	227574
3	187924	130.98085662454	227715
3	188008	131.02237662454	227856
3	188026	131.03621662454	227997
3	188091	131.05005662454	228138
3	188109	131.06389662454	228279
3	188204	131.11925662454	228420
3	188273	131.16077662454	228561
3	188294	131.18845662454	228702
3	188370	131.21613662454	228843
3	188436	131.25765662454	228984
3	188461	131.27149662454	229125
3	188479	131.28533662454	229266
3	188497	131.29917662454	229407
3	188570	131.31301662454	229548
3	188642	131.36837662454	229689
3	188730	131.40989662454	229830
3	188802	131.46525662454	229971
3	188884	131.52061662454	230112
3	188900	131.54829662454	230253
3	188958	131.56213662454	230394
3	189032	131.594553750077	230535
3	189117	131.608393750077	230676
3	189155	131.622233750077	230817
3	189173	131.636073750077	230958
3	189239	131.663753750077	231099
3	189257	131.677593750077	231240
3	189340	131.705273750077	231381
3	189361	131.719113750077	231522
3	189382	131.746793750077	231663
3	189445	131.760633750077	231804
3	189461	131.788313750077	231945
3	189558	131.815993750077	232086
3	189574	131.829833750077	232227
3	189587	131.843673750077	232368
3	189656	131.885193750077	232509
3	189775	131.923520672585	232650
3	189788	131.937360672585	232791
3	189853	131.951200672585	232932
3	189893	131.992720672585	233073
3	189976	132.006560672585	233214
3	189994	132.020400672585	233355
3	190007	132.034240672585	233496
3	190020	132.048080672585	233637
3	191634	133.43397662454	233778
3	191652	133.44781662454	233919
3	191710	133.46165662454	234060
3	191789	133.50317662454	234201
3	191810	133.53085662454	234342
3	193863	135.208529702032	234483
3	193882	135.222369702032	234624
3	193944	135.250049702032	234765
3	193958	135.263889702032	234906
3	193972	135.277729702032	235047
3	193986	135.291569702032	235188
3	194082	135.319249702032	235329
3	194096	135.333089702032	235470
3	194158	135.360769702032	235611
3	194177	135.374609702032	235752
3	194196	135.388449702032	235893
3	194278	135.416129702032	236034
3	194352	135.457649702032	236175
3	194383	135.471489702032	236316
3	194405	135.499169702032	236457
3	194538	135.554529702032	236598
3	194557	135.568369702032	236739
3	194574	135.596049702032	236880
3	194655	135.609889702032	237021
3	194672	135.623729702032	237162
3	194691	135.637569702032	237303
3	194750	135.651409702032	237444
3	194769	135.665249702032	237585
3	194788	135.679089702032	237726
3	194807	135.692929702032	237867
3	194888	135.720609702032	238008
3	194902	135.734449702032	238149
3	194969	135.762129702032	238290
3	195057	135.817489702032	238431
3	195076	135.831329702032	238572
3	195095	135.845169702032	238713
3	195157	135.872849702032	238854
3	195234	135.900529702032	238995
3	195259	135.942049702032	239136
3	195323	135.955889702032	239277
3	195519	136.037249702032	239418
3	195592	136.092609702032	239559
3	195700	136.147969702032	239700
3	195761	136.161809702032	239841
3	195792	136.175649702032	239982
3	195869	136.203329702032	240123
3	195888	136.217169702032	240264
3	195902	136.231009702032	240405
3	195921	136.244849702032	240546
3	195990	136.272529702032	240687
3	196074	136.300209702032	240828
3	196088	136.314049702032	240969
3	196107	136.327889702032	241110
3	196126	136.341729702032	241251
3	196185	136.355569702032	241392
3	196204	136.369409702032	241533
3	196223	136.383249702032	241674
3	196308	136.424769702032	241815
3	196327	136.438609702032	241956
3	196386	136.452449702032	242097
3	196400	136.466289702032	242238
3	196419	136.480129702032	242379
3	196534	136.503346827569	242520
3	196547	136.517186827569	242661
3	196585	136.531026827569	242802
3	196722	136.600226827569	242943
3	196740	136.614066827569	243084
3	196800	136.635493655138	243225
3	196818	136.641746827569	243366
3	196896	136.663173655138	243507
3	196909	136.677013655138	243648
3	196992	136.704693655138	243789
3	197049	136.73397662454	243930
3	197065	136.74781662454	244071
3	197130	136.76165662454	244212
3	197217	136.80317662454	244353
3	198808	138.23397662454	244494
3	198826	138.24781662454	244635
3	198909	138.27549662454	244776
3	198922	138.28933662454	244917
3	199017	138.31701662454	245058
3	199044	138.33085662454	245199
3	200036	139.03397662454	245340
3	200050	139.04781662454	245481
3	200117	139.07549662454	245622
3	200136	139.08933662454	245763
3	200226	139.10317662454	245904
3	200299	139.15853662454	246045
3	200318	139.17237662454	246186
3	200403	139.21389662454	246327
3	200422	139.22773662454	246468
3	200436	139.24157662454	246609
3	200503	139.26925662454	246750
3	200520	139.29693662454	246891
3	200599	139.31077662454	247032
3	200613	139.32461662454	247173
3	200632	139.33845662454	247314
3	200699	139.36613662454	247455
3	200804	139.43533662454	247596
3	200823	139.44917662454	247737
3	200893	139.49069662454	247878
3	200970	139.51837662454	248019
3	200989	139.53221662454	248160
3	201008	139.54605662454	248301
3	201069	139.55989662454	248442
3	201088	139.57373662454	248583
3	201248	139.639743547048	248724
3	201310	139.667423547048	248865
3	201329	139.681263547048	249006
3	201348	139.695103547048	249147
3	201425	139.722783547048	249288
3	201439	139.736623547048	249429
3	201506	139.764303547048	249570
3	201525	139.778143547048	249711
3	201544	139.791983547048	249852
3	201646	139.847343547048	249993
3	201705	139.861183547048	250134
3	201724	139.875023547048	250275
3	201809	139.916543547048	250416
3	201828	139.930383547048	250557
3	201847	139.944223547048	250698
3	202506	140.43397662454	250839
3	202524	140.44781662454	250980
3	202587	140.46165662454	251121
3	202600	140.47549662454	251262
3	202613	140.48933662454	251403
3	202691	140.50317662454	251544
3	202712	140.53085662454	251685
3	202730	140.54469662454	251826
3	202795	140.55853662454	251967
3	202832	140.58621662454	252108
3	202913	140.61389662454	252249
3	203080	140.73397662454	252390
3	203149	140.77549662454	252531
3	203789	141.28397662454	252672
3	203807	141.29781662454	252813
3	203885	141.31165662454	252954
3	204097	141.47549662454	253095
3	204115	141.48933662454	253236
3	204193	141.50317662454	253377
3	205454	142.58397662454	253518
3	205535	142.61165662454	253659
3	205548	142.62549662454	253800
3	205566	142.63933662454	253941
3	205629	142.65317662454	254082
3	205647	142.66701662454	254223
3	205663	142.69469662454	254364
3	205761	142.73621662454	254505
3	205824	142.75005662454	254646
3	205842	142.76389662454	254787
3	205860	142.77773662454	254928
3	208581	145.08397662454	255069
3	208594	145.09781662454	255210
3	208678	145.11165662454	255351
3	210571	146.68397662454	255492
3	210596	146.69781662454	255633
3	210598	146.69781662454	255774
3	210685	146.71165662454	255915
3	210687	146.71165662454	256056
3	210706	146.72549662454	256197
3	210728	146.73933662454	256338
3	210794	146.79469662454	256479
3	210875	146.80853662454	256620
3	210894	146.82237662454	256761
3	210908	146.83621662454	256902
3	210975	146.86389662454	257043
3	210994	146.87773662454	257184
3	211071	146.90541662454	257325
3	211090	146.91925662454	257466
3	211109	146.93309662454	257607
3	211123	146.94693662454	257748
3	211190	146.97461662454	257889
3	211209	146.98845662454	258030
3	211293	147.00229662454	258171
3	211312	147.01613662454	258312
3	211331	147.02997662454	258453
3	211350	147.04381662454	258594
3	211425	147.08533662454	258735
3	211444	147.09917662454	258876
3	211529	147.11301662454	259017
3	211543	147.12685662454	259158
3	211557	147.14069662454	259299
3	211624	147.16837662454	259440
3	211638	147.18221662454	259581
3	211657	147.19605662454	259722
3	211731	147.20989662454	259863
3	211748	147.23757662454	260004
3	211812	147.25141662454	260145
3	211826	147.26525662454	260286
3	211848	147.29293662454	260427
3	211927	147.30677662454	260568
3	211949	147.33445662454	260709
3	211968	147.34829662454	260850
3	212035	147.37597662454	260991
3	213064	148.23861662454	261132
3	213149	148.26629662454	261273
3	213170	148.28013662454	261414
3	213183	148.29397662454	261555
3	213264	148.32165662454	261696
3	213280	148.34933662454	261837
3	213340	148.36317662454	261978
3	213373	148.37701662454	262119
3	215160	149.88397662454	262260
3	215162	149.88397662454	262401
3	215189	149.89781662454	262542
3	215191	149.89781662454	262683
3	215273	149.91165662454	262824
3	215275	149.91165662454	262965
3	215294	149.92549662454	263106
3	215311	149.93933662454	263247
3	215372	149.95317662454	263388
3	215374	149.95317662454	263529
3	215401	149.96701662454	263670
3	215403	149.96701662454	263811
3	215425	149.98085662454	263952
3	215427	149.98085662454	264093
3	215448	149.99469662454	264234
3	215531	150.00853662454	264375
3	215557	150.02237662454	264516
3	215576	150.03621662454	264657
3	215640	150.05005662454	264798
3	215657	150.07773662454	264939
3	215671	150.09157662454	265080
3	215745	150.10541662454	265221
3	215764	150.11925662454	265362
3	215778	150.13309662454	265503
3	215792	150.14693662454	265644
3	215857	150.18845662454	265785
3	215936	150.21613662454	265926
3	215958	150.24381662454	266067
3	216022	150.25765662454	266208
3	216111	150.34069662454	266349
3	216177	150.35453662454	266490
3	216337	150.439113750077	266631
3	216484	150.458863547048	266772
3	216503	150.466793750077	266913
3	216513	150.472703547048	267054
3	216538	150.494473750077	267195
3	216610	150.500383547048	267336
3	216629	150.508313750077	267477
3	216651	150.541903547048	267618
3	216722	150.555743547048	267759
3	216756	150.569583547048	267900
3	216770	150.583423547048	268041
3	216789	150.597263547048	268182
3	216863	150.611103547048	268323
3	217003	150.721823547048	268464
3	217025	150.749503547048	268605
3	217153	150.804863547048	268746
3	217167	150.818703547048	268887
3	217186	150.832543547048	269028
3	217200	150.846383547048	269169
3	217264	150.860223547048	269310
3	217500	150.98397662454	269451
3	217514	150.99781662454	269592
3	217601	151.02549662454	269733
3	217615	151.03933662454	269874
3	217679	151.05317662454	270015
3	217698	151.06701662454	270156
3	217720	151.09469662454	270297
3	217805	151.13621662454	270438
3	217869	151.15005662454	270579
3	217883	151.16389662454	270720
3	217902	151.17773662454	270861
3	217990	151.23309662454	271002
3	218009	151.24693662454	271143
3	218073	151.26077662454	271284
3	218092	151.27461662454	271425
3	218111	151.28845662454	271566
3	219378	152.38397662454	271707
3	219397	152.39781662454	271848
3	219471	152.41165662454	271989
3	219488	152.43933662454	272130
3	219552	152.45317662454	272271
3	219910	152.70317662454	272412
3	221332	153.98397662454	272553
3	221346	153.99781662454	272694
3	221482	154.06701662454	272835
3	221501	154.08085662454	272976
3	221585	154.10853662454	273117
3	222462	154.81165662454	273258
3	226366	158.29781662454	273399
3	226445	158.31165662454	273540
3	226459	158.32549662454	273681
3	227062	158.83397662454	273822
3	227124	158.86165662454	273963
3	228778	160.33397662454	274104
3	228797	160.34781662454	274245
3	228864	160.37549662454	274386
3	228963	160.41701662454	274527
3	228985	160.43085662454	274668
3	232501	163.43397662454	274809
3	235058	165.58397662454	274950
3	236472	166.68397662454	275091

