version 2
run D_08_10-0-20191018-23:49:50-13902
attr configname D_08_10
attr datetime 20191018-23:49:50
attr experiment D_08_10
attr inifile GwSimV1.ini
attr iterationvars ""
attr iterationvarsf ""
attr measurement ""
attr network NetworkTormV2
attr processid 13902
attr repetition 0
attr replication #0
attr resultdir results
attr runnumber 0
attr seedset 0
param **.mobility.traceFile "\"pathsGW/D.movements\""
param **.numNodes 11
param **.application.dataGenerationInterval 1s
param **.application.dataSizeInBytes 10
param **.application.ttl 999999s
param **application.nodesThatGen false
param **application.nodesGenMsg "\"\""
param **application.startMultipleMsg false
param **application.numMultipleMsg 100
param **application.hopsListSize 50
param **.application.endGeneratingMsg 99s
param **.routingLayer "\"RoutingLqeGw\""
param **.routing.maximumCacheSize 5000byte
param **.routing.maximumHopCount 25
param **.routing.useTTL false
param **.routing.waitBFsend 0.1
param **.routing.max_age 999999s
param **.routing.gateway_list "\"\""
param **.routing.actual_gateway "\"\""
param **.routing.gwCheckPeriod 5s
param **.neighboring.resetGPeriod 10s
param **.wirelessIfc.wirelessRange 40m
param **.numNodes 2
param **.application.usedRNG 1
param **.application.dataGenerationInterval 1s
param **.application.dataSizeInBytes 10
param **.application.ttl 999999s
param **application.destinationAddr "\"Wf:00:00:00:00:02\""
param **application.destinationBTAddr "\"Bt:00:00:00:00:02\""
param **application.nodesThatGen true
param **application.nodesGenMsg "\"0\""
param **application.startMultipleMsg true
param **application.numMultipleMsg 100
param **application.hopsListSize 50
param **.application.endGeneratingMsg 999999s
param **.routingLayer "\"RoutingLqeGw\""
param **.routing.maximumCacheSize 5000byte
param **.routing.maximumHopCount 25
param **.routing.useTTL false
param **.routing.waitBFsend 0.1
param **.routing.max_age 999999s
param **.routing.gateway_list "\"\""
param **.routing.actual_gateway "\"\""
param **.routing.gwCheckPeriod 5s
param **.neighboring.antiEntropyInterval 500ms
param **.neighboring.maximumRandomBackoffDuration 1s
param **.neighboring.delayPerDataMsg 0.1
param **neighboring.usedRNG 2
param **.neighboring.GWAddr "\"Wf:00:00:00:00:02\""
param **.neighboring.sendWifiFirst true
param **.neighboring.maxLengthGraph 20
param **.neighboring.max_age 999999s
param **.neighboring.max_absent_time 1s
param **.wirelessIfc.wirelessRange 40m
param **.wirelessIfc.neighbourScanInterval 50ms
param **.wirelessIfc.bandwidthBitRate 100000bps
param **.wirelessIfc.wirelessHeaderSize 32byte
param **.wirelessIfc.minSSI -90
param **.wirelessIfc.limitQueueTime 400ms
param **.wirelessIfc.my_limit_rate 0bps
param **.bluetoothIfc.wirelessRange 40m
param **.bluetoothIfc.neighbourScanInterval 100ms
param **.bluetoothIfc.bandwidthBitRate 100000bps
param **.bluetoothIfc.wirelessHeaderSize 16byte
param **.bluetoothIfc.minSSI -90
param **.mobilityType "\"BonnMotionMobility\""
param **.mobility.traceFile "\"paths/Moves2.movements\""
param **.mobility.is3D false
param **.mobility.nodeId -1

vector 0 NetworkTormV2 neighbourhoodSize:vector ETV
attr source neighbourhoodSize
vector 1 NetworkTormV2 deliveryRatio:vector ETV
attr source sum(totalDataBytesReceived)/sum(totalDataBytesReceivableByAllNodes)
vector 2 NetworkTormV2 dataBytesReceivedSum:vector ETV
attr source sum(dataBytesReceived)
vector 3 NetworkTormV2 totalBytesReceivedSum:vector ETV
attr source sum(totalBytesReceived)
0	34	0.05	3
0	35	0.05	5
0	36	0.05	3
0	37	0.05	5
0	38	0.05	8
0	39	0.05	5
0	40	0.05	3
0	41	0.05	5
0	42	0.05	3
0	43	0.05	1
0	44	0.05	1
0	134	0.1	3
0	136	0.1	5
0	138	0.1	3
0	140	0.1	5
0	142	0.1	8
0	144	0.1	5
0	146	0.1	3
0	148	0.1	5
0	150	0.1	3
0	152	0.1	1
0	154	0.1	1
0	158	0.1	3
0	159	0.1	5
0	160	0.1	3
0	161	0.1	5
0	162	0.1	8
0	163	0.1	5
0	164	0.1	3
0	165	0.1	5
0	166	0.1	3
0	167	0.1	1
0	168	0.1	1
0	290	0.15	3
0	291	0.15	5
0	292	0.15	3
0	293	0.15	5
0	294	0.15	8
0	295	0.15	5
0	296	0.15	3
0	297	0.15	5
0	298	0.15	3
0	299	0.15	1
0	300	0.15	1
0	389	0.2	3
0	390	0.2	5
0	391	0.2	3
0	392	0.2	5
0	393	0.2	8
0	394	0.2	5
0	395	0.2	3
0	396	0.2	5
0	397	0.2	3
0	398	0.2	1
0	399	0.2	1
0	403	0.2	3
0	404	0.2	5
0	405	0.2	3
0	406	0.2	5
0	407	0.2	8
0	408	0.2	5
0	409	0.2	3
0	410	0.2	5
0	411	0.2	3
0	412	0.2	1
0	413	0.2	1
0	524	0.25	3
0	525	0.25	5
0	526	0.25	3
0	527	0.25	5
0	528	0.25	8
0	529	0.25	5
0	530	0.25	3
0	531	0.25	5
0	532	0.25	3
0	533	0.25	1
0	534	0.25	1
0	623	0.3	3
0	624	0.3	5
0	625	0.3	3
0	626	0.3	5
0	627	0.3	8
0	628	0.3	5
0	629	0.3	3
0	630	0.3	5
0	631	0.3	3
0	632	0.3	1
0	633	0.3	1
0	637	0.3	3
0	638	0.3	5
0	639	0.3	3
0	640	0.3	5
0	641	0.3	8
0	642	0.3	5
0	643	0.3	3
0	644	0.3	5
0	645	0.3	3
0	646	0.3	1
0	647	0.3	1
0	758	0.35	3
0	759	0.35	5
0	760	0.35	3
0	761	0.35	5
0	762	0.35	8
0	763	0.35	5
0	764	0.35	3
0	765	0.35	5
0	766	0.35	3
0	767	0.35	1
0	768	0.35	1
0	857	0.4	3
0	858	0.4	5
0	859	0.4	3
0	860	0.4	5
0	861	0.4	8
0	862	0.4	5
0	863	0.4	3
0	864	0.4	5
0	865	0.4	3
0	866	0.4	1
0	867	0.4	1
0	871	0.4	3
0	872	0.4	5
0	873	0.4	3
0	874	0.4	5
0	875	0.4	8
0	876	0.4	5
0	877	0.4	3
0	878	0.4	5
0	879	0.4	3
0	880	0.4	1
0	881	0.4	1
0	992	0.45	3
0	993	0.45	5
0	994	0.45	3
0	995	0.45	5
0	996	0.45	8
0	997	0.45	5
0	998	0.45	3
0	999	0.45	5
0	1000	0.45	3
0	1001	0.45	1
0	1002	0.45	1
0	1091	0.5	3
0	1092	0.5	5
0	1093	0.5	3
0	1094	0.5	5
0	1095	0.5	8
0	1096	0.5	5
0	1097	0.5	3
0	1098	0.5	5
0	1099	0.5	3
0	1100	0.5	1
0	1101	0.5	1
0	1105	0.5	3
0	1106	0.5	5
0	1107	0.5	3
0	1108	0.5	5
0	1109	0.5	8
0	1110	0.5	5
0	1111	0.5	3
0	1112	0.5	5
0	1113	0.5	3
0	1114	0.5	1
0	1115	0.5	1
0	1226	0.55	3
0	1227	0.55	5
0	1228	0.55	3
0	1229	0.55	5
0	1230	0.55	8
0	1231	0.55	5
0	1232	0.55	3
0	1233	0.55	5
0	1234	0.55	3
0	1235	0.55	1
0	1236	0.55	1
0	1325	0.6	3
0	1326	0.6	5
0	1327	0.6	3
0	1328	0.6	5
0	1329	0.6	8
0	1330	0.6	5
0	1331	0.6	3
0	1332	0.6	5
0	1333	0.6	3
0	1334	0.6	1
0	1335	0.6	1
0	1339	0.6	3
0	1340	0.6	5
0	1341	0.6	3
0	1342	0.6	5
0	1343	0.6	8
0	1344	0.6	5
0	1345	0.6	3
0	1346	0.6	5
0	1347	0.6	3
0	1348	0.6	1
0	1349	0.6	1
0	1460	0.65	3
0	1461	0.65	5
0	1462	0.65	3
0	1463	0.65	5
0	1464	0.65	8
0	1465	0.65	5
0	1466	0.65	3
0	1467	0.65	5
0	1468	0.65	3
0	1469	0.65	1
0	1470	0.65	1
0	1559	0.7	3
0	1560	0.7	5
0	1561	0.7	3
0	1562	0.7	5
0	1563	0.7	8
0	1564	0.7	5
0	1565	0.7	3
0	1566	0.7	5
0	1567	0.7	3
0	1568	0.7	1
0	1569	0.7	1
0	1573	0.7	3
0	1574	0.7	5
0	1575	0.7	3
0	1576	0.7	5
0	1577	0.7	8
0	1578	0.7	5
0	1579	0.7	3
0	1580	0.7	5
0	1581	0.7	3
0	1582	0.7	1
0	1583	0.7	1
0	1694	0.75	3
0	1695	0.75	5
0	1696	0.75	3
0	1697	0.75	5
0	1698	0.75	8
0	1699	0.75	5
0	1700	0.75	3
0	1701	0.75	5
0	1702	0.75	3
0	1703	0.75	1
0	1704	0.75	1
0	1793	0.8	3
0	1794	0.8	5
0	1795	0.8	3
0	1796	0.8	5
0	1797	0.8	8
0	1798	0.8	5
0	1799	0.8	3
0	1800	0.8	5
0	1801	0.8	3
0	1802	0.8	1
0	1803	0.8	1
0	1807	0.8	3
0	1808	0.8	5
0	1809	0.8	3
0	1810	0.8	5
0	1811	0.8	8
0	1812	0.8	5
0	1813	0.8	3
0	1814	0.8	5
0	1815	0.8	3
0	1816	0.8	1
0	1817	0.8	1
0	1928	0.85	3
0	1929	0.85	5
0	1930	0.85	3
0	1931	0.85	5
0	1932	0.85	8
0	1933	0.85	5
0	1934	0.85	3
0	1935	0.85	5
0	1936	0.85	3
0	1937	0.85	1
0	1938	0.85	1
0	2027	0.9	3
0	2028	0.9	5
0	2029	0.9	3
0	2030	0.9	5
0	2031	0.9	8
0	2032	0.9	5
0	2033	0.9	3
0	2034	0.9	5
0	2035	0.9	3
0	2036	0.9	1
0	2037	0.9	1
0	2041	0.9	3
0	2042	0.9	5
0	2043	0.9	3
0	2044	0.9	5
0	2045	0.9	8
0	2046	0.9	5
0	2047	0.9	3
0	2048	0.9	5
0	2049	0.9	3
0	2050	0.9	1
0	2051	0.9	1
0	2162	0.95	3
0	2163	0.95	5
0	2164	0.95	3
0	2165	0.95	5
0	2166	0.95	8
0	2167	0.95	5
0	2168	0.95	3
0	2169	0.95	5
0	2170	0.95	3
0	2171	0.95	1
0	2172	0.95	1
0	2261	1	3
0	2262	1	5
0	2263	1	3
0	2264	1	5
0	2265	1	8
0	2266	1	5
0	2267	1	3
0	2268	1	5
0	2269	1	3
0	2270	1	1
0	2271	1	1
0	2275	1	3
0	2276	1	5
0	2277	1	3
0	2278	1	5
0	2279	1	8
0	2280	1	5
0	2281	1	3
0	2282	1	5
0	2283	1	3
0	2284	1	1
0	2285	1	1
0	2396	1.05	3
0	2397	1.05	5
0	2398	1.05	3
0	2399	1.05	5
0	2400	1.05	8
0	2401	1.05	5
0	2402	1.05	3
0	2403	1.05	5
0	2404	1.05	3
0	2405	1.05	1
0	2406	1.05	1
0	2506	1.1	3
0	2507	1.1	5
0	2508	1.1	3
0	2509	1.1	5
0	2510	1.1	8
0	2511	1.1	5
0	2512	1.1	3
0	2513	1.1	5
0	2514	1.1	3
0	2515	1.1	1
0	2516	1.1	1
0	2520	1.1	3
0	2521	1.1	5
0	2522	1.1	3
0	2523	1.1	5
0	2524	1.1	8
0	2525	1.1	5
0	2526	1.1	3
0	2527	1.1	5
0	2528	1.1	3
0	2529	1.1	1
0	2530	1.1	1
0	3102	1.15	3
0	3103	1.15	5
0	3104	1.15	3
0	3105	1.15	5
0	3106	1.15	8
0	3107	1.15	5
0	3108	1.15	3
0	3109	1.15	5
0	3110	1.15	3
0	3111	1.15	1
0	3112	1.15	1
0	3519	1.2	3
0	3520	1.2	5
0	3521	1.2	3
0	3522	1.2	5
0	3523	1.2	8
0	3524	1.2	5
0	3525	1.2	3
0	3526	1.2	5
0	3527	1.2	3
0	3528	1.2	1
0	3529	1.2	1
0	3533	1.2	3
0	3534	1.2	5
0	3535	1.2	3
0	3536	1.2	5
0	3537	1.2	8
0	3538	1.2	5
0	3539	1.2	3
0	3540	1.2	5
0	3541	1.2	3
0	3542	1.2	1
0	3543	1.2	1
0	3738	1.25	3
0	3739	1.25	5
0	3740	1.25	3
0	3741	1.25	5
0	3742	1.25	8
0	3743	1.25	5
0	3744	1.25	3
0	3745	1.25	5
0	3746	1.25	3
0	3747	1.25	1
0	3748	1.25	1
0	3855	1.3	3
0	3856	1.3	5
0	3857	1.3	3
0	3858	1.3	5
0	3859	1.3	8
0	3860	1.3	5
0	3861	1.3	3
0	3862	1.3	5
0	3863	1.3	3
0	3864	1.3	1
0	3865	1.3	1
0	3869	1.3	3
0	3870	1.3	5
0	3871	1.3	3
0	3872	1.3	5
0	3873	1.3	8
0	3874	1.3	5
0	3875	1.3	3
0	3876	1.3	5
0	3877	1.3	3
0	3878	1.3	1
0	3879	1.3	1
0	3990	1.35	3
0	3991	1.35	5
0	3992	1.35	3
0	3993	1.35	5
0	3994	1.35	8
0	3995	1.35	5
0	3996	1.35	3
0	3997	1.35	5
0	3998	1.35	3
0	3999	1.35	1
0	4000	1.35	1
0	4089	1.4	3
0	4090	1.4	5
0	4091	1.4	3
0	4092	1.4	5
0	4093	1.4	8
0	4094	1.4	5
0	4095	1.4	3
0	4096	1.4	5
0	4097	1.4	3
0	4098	1.4	1
0	4099	1.4	1
0	4103	1.4	3
0	4104	1.4	5
0	4105	1.4	3
0	4106	1.4	5
0	4107	1.4	8
0	4108	1.4	5
0	4109	1.4	3
0	4110	1.4	5
0	4111	1.4	3
0	4112	1.4	1
0	4113	1.4	1
0	4224	1.45	3
0	4225	1.45	5
0	4226	1.45	3
0	4227	1.45	5
0	4228	1.45	8
0	4229	1.45	5
0	4230	1.45	3
0	4231	1.45	5
0	4232	1.45	3
0	4233	1.45	1
0	4234	1.45	1
0	4323	1.5	3
0	4324	1.5	5
0	4325	1.5	3
0	4326	1.5	5
0	4327	1.5	8
0	4328	1.5	5
0	4329	1.5	3
0	4330	1.5	5
0	4331	1.5	3
0	4332	1.5	1
0	4333	1.5	1
0	4337	1.5	3
0	4338	1.5	5
0	4339	1.5	3
0	4340	1.5	5
0	4341	1.5	8
0	4342	1.5	5
0	4343	1.5	3
0	4344	1.5	5
0	4345	1.5	3
0	4346	1.5	1
0	4347	1.5	1
0	4458	1.55	3
0	4459	1.55	5
0	4460	1.55	3
0	4461	1.55	5
0	4462	1.55	8
0	4463	1.55	5
0	4464	1.55	3
0	4465	1.55	5
0	4466	1.55	3
0	4467	1.55	1
0	4468	1.55	1
0	4557	1.6	3
0	4558	1.6	5
0	4559	1.6	3
0	4560	1.6	5
0	4561	1.6	8
0	4562	1.6	5
0	4563	1.6	3
0	4564	1.6	5
0	4565	1.6	3
0	4566	1.6	1
0	4567	1.6	1
0	4571	1.6	3
0	4572	1.6	5
0	4573	1.6	3
0	4574	1.6	5
0	4575	1.6	8
0	4576	1.6	5
0	4577	1.6	3
0	4578	1.6	5
0	4579	1.6	3
0	4580	1.6	1
0	4581	1.6	1
0	4692	1.65	3
0	4693	1.65	5
0	4694	1.65	3
0	4695	1.65	5
0	4696	1.65	8
0	4697	1.65	5
0	4698	1.65	3
0	4699	1.65	5
0	4700	1.65	3
0	4701	1.65	1
0	4702	1.65	1
0	5173	1.7	3
0	5174	1.7	5
0	5175	1.7	3
0	5176	1.7	5
0	5177	1.7	8
0	5178	1.7	5
0	5179	1.7	3
0	5180	1.7	5
0	5181	1.7	3
0	5182	1.7	1
0	5183	1.7	1
0	5187	1.7	3
0	5188	1.7	5
0	5189	1.7	3
0	5190	1.7	5
0	5191	1.7	8
0	5192	1.7	5
0	5193	1.7	3
0	5194	1.7	5
0	5195	1.7	3
0	5196	1.7	1
0	5197	1.7	1
0	5560	1.75	3
0	5561	1.75	5
0	5562	1.75	3
0	5563	1.75	5
0	5564	1.75	8
0	5565	1.75	5
0	5566	1.75	3
0	5567	1.75	5
0	5568	1.75	3
0	5569	1.75	1
0	5570	1.75	1
0	5755	1.8	3
0	5756	1.8	5
0	5757	1.8	3
0	5758	1.8	5
0	5759	1.8	8
0	5760	1.8	5
0	5761	1.8	3
0	5762	1.8	5
0	5763	1.8	3
0	5764	1.8	1
0	5765	1.8	1
0	5769	1.8	3
0	5770	1.8	5
0	5771	1.8	3
0	5772	1.8	5
0	5773	1.8	8
0	5774	1.8	5
0	5775	1.8	3
0	5776	1.8	5
0	5777	1.8	3
0	5778	1.8	1
0	5779	1.8	1
0	5890	1.85	3
0	5891	1.85	5
0	5892	1.85	3
0	5893	1.85	5
0	5894	1.85	8
0	5895	1.85	5
0	5896	1.85	3
0	5897	1.85	5
0	5898	1.85	3
0	5899	1.85	1
0	5900	1.85	1
0	6012	1.9	3
0	6013	1.9	5
0	6014	1.9	3
0	6015	1.9	5
0	6016	1.9	8
0	6017	1.9	5
0	6018	1.9	3
0	6019	1.9	5
0	6020	1.9	3
0	6021	1.9	1
0	6022	1.9	1
0	6026	1.9	3
0	6027	1.9	5
0	6028	1.9	3
0	6029	1.9	5
0	6030	1.9	8
0	6031	1.9	5
0	6032	1.9	3
0	6033	1.9	5
0	6034	1.9	3
0	6035	1.9	1
0	6036	1.9	1
0	6147	1.95	3
0	6148	1.95	5
0	6149	1.95	3
0	6150	1.95	5
0	6151	1.95	8
0	6152	1.95	5
0	6153	1.95	3
0	6154	1.95	5
0	6155	1.95	3
0	6156	1.95	1
0	6157	1.95	1
0	6246	2	3
0	6247	2	5
0	6248	2	3
0	6249	2	5
0	6250	2	8
0	6251	2	5
0	6252	2	3
0	6253	2	5
0	6254	2	3
0	6255	2	1
0	6256	2	1
0	6260	2	3
0	6261	2	5
0	6262	2	3
0	6263	2	5
0	6264	2	8
0	6265	2	5
0	6266	2	3
0	6267	2	5
0	6268	2	3
0	6269	2	1
0	6270	2	1
0	6381	2.05	3
0	6382	2.05	5
0	6383	2.05	3
0	6384	2.05	5
0	6385	2.05	8
0	6386	2.05	5
0	6387	2.05	3
0	6388	2.05	5
0	6389	2.05	3
0	6390	2.05	1
0	6391	2.05	1
0	6491	2.1	3
0	6492	2.1	5
0	6493	2.1	3
0	6494	2.1	5
0	6495	2.1	8
0	6496	2.1	5
0	6497	2.1	3
0	6498	2.1	5
0	6499	2.1	3
0	6500	2.1	1
0	6501	2.1	1
0	6505	2.1	3
0	6506	2.1	5
0	6507	2.1	3
0	6508	2.1	5
0	6509	2.1	8
0	6510	2.1	5
0	6511	2.1	3
0	6512	2.1	5
0	6513	2.1	3
0	6514	2.1	1
0	6515	2.1	1
0	6637	2.15	3
0	6638	2.15	5
0	6639	2.15	3
0	6640	2.15	5
0	6641	2.15	8
0	6642	2.15	5
0	6643	2.15	3
0	6644	2.15	5
0	6645	2.15	3
0	6646	2.15	1
0	6647	2.15	1
0	6736	2.2	3
0	6737	2.2	5
0	6738	2.2	3
0	6739	2.2	5
0	6740	2.2	8
0	6741	2.2	5
0	6742	2.2	3
0	6743	2.2	5
0	6744	2.2	3
0	6745	2.2	1
0	6746	2.2	1
0	6750	2.2	3
0	6751	2.2	5
0	6752	2.2	3
0	6753	2.2	5
0	6754	2.2	8
0	6755	2.2	5
0	6756	2.2	3
0	6757	2.2	5
0	6758	2.2	3
0	6759	2.2	1
0	6760	2.2	1
0	7278	2.25	3
0	7279	2.25	5
0	7280	2.25	3
0	7281	2.25	5
0	7282	2.25	8
0	7283	2.25	5
0	7284	2.25	3
0	7285	2.25	5
0	7286	2.25	3
0	7287	2.25	1
0	7288	2.25	1
0	7587	2.3	3
0	7588	2.3	5
0	7589	2.3	3
0	7590	2.3	5
0	7591	2.3	8
0	7592	2.3	5
0	7593	2.3	3
0	7594	2.3	5
0	7595	2.3	3
0	7596	2.3	1
0	7597	2.3	1
0	7601	2.3	3
0	7602	2.3	5
0	7603	2.3	3
0	7604	2.3	5
0	7605	2.3	8
0	7606	2.3	5
0	7607	2.3	3
0	7608	2.3	5
0	7609	2.3	3
0	7610	2.3	1
0	7611	2.3	1
0	7758	2.35	3
0	7759	2.35	5
0	7760	2.35	3
0	7761	2.35	5
0	7762	2.35	8
0	7763	2.35	5
0	7764	2.35	3
0	7765	2.35	5
0	7766	2.35	3
0	7767	2.35	1
0	7768	2.35	1
0	7948	2.4	3
0	7949	2.4	5
0	7950	2.4	3
0	7951	2.4	5
0	7952	2.4	8
0	7953	2.4	5
0	7954	2.4	3
0	7955	2.4	5
0	7956	2.4	3
0	7957	2.4	1
0	7958	2.4	1
0	7962	2.4	3
0	7963	2.4	5
0	7964	2.4	3
0	7965	2.4	5
0	7966	2.4	8
0	7967	2.4	5
0	7968	2.4	3
0	7969	2.4	5
0	7970	2.4	3
0	7971	2.4	1
0	7972	2.4	1
0	8106	2.45	3
0	8107	2.45	5
0	8108	2.45	3
0	8109	2.45	5
0	8110	2.45	8
0	8111	2.45	5
0	8112	2.45	3
0	8113	2.45	5
0	8114	2.45	3
0	8115	2.45	1
0	8116	2.45	1
0	8205	2.5	3
0	8206	2.5	5
0	8207	2.5	3
0	8208	2.5	5
0	8209	2.5	8
0	8210	2.5	5
0	8211	2.5	3
0	8212	2.5	5
0	8213	2.5	3
0	8214	2.5	1
0	8215	2.5	1
0	8219	2.5	3
0	8220	2.5	5
0	8221	2.5	3
0	8222	2.5	5
0	8223	2.5	8
0	8224	2.5	5
0	8225	2.5	3
0	8226	2.5	5
0	8227	2.5	3
0	8228	2.5	1
0	8229	2.5	1
0	8340	2.55	3
0	8341	2.55	5
0	8342	2.55	3
0	8343	2.55	5
0	8344	2.55	8
0	8345	2.55	5
0	8346	2.55	3
0	8347	2.55	5
0	8348	2.55	3
0	8349	2.55	1
0	8350	2.55	1
0	8439	2.6	3
0	8440	2.6	5
0	8441	2.6	3
0	8442	2.6	5
0	8443	2.6	8
0	8444	2.6	5
0	8445	2.6	3
0	8446	2.6	5
0	8447	2.6	3
0	8448	2.6	1
0	8449	2.6	1
0	8453	2.6	3
0	8454	2.6	5
0	8455	2.6	3
0	8456	2.6	5
0	8457	2.6	8
0	8458	2.6	5
0	8459	2.6	3
0	8460	2.6	5
0	8461	2.6	3
0	8462	2.6	1
0	8463	2.6	1
0	8574	2.65	3
0	8575	2.65	5
0	8576	2.65	3
0	8577	2.65	5
0	8578	2.65	8
0	8579	2.65	5
0	8580	2.65	3
0	8581	2.65	5
0	8582	2.65	3
0	8583	2.65	1
0	8584	2.65	1
0	8673	2.7	3
0	8674	2.7	5
0	8675	2.7	3
0	8676	2.7	5
0	8677	2.7	8
0	8678	2.7	5
0	8679	2.7	3
0	8680	2.7	5
0	8681	2.7	3
0	8682	2.7	1
0	8683	2.7	1
0	8687	2.7	3
0	8688	2.7	5
0	8689	2.7	3
0	8690	2.7	5
0	8691	2.7	8
0	8692	2.7	5
0	8693	2.7	3
0	8694	2.7	5
0	8695	2.7	3
0	8696	2.7	1
0	8697	2.7	1
0	8853	2.75	3
0	8854	2.75	5
0	8855	2.75	3
0	8856	2.75	5
0	8857	2.75	8
0	8858	2.75	5
0	8859	2.75	3
0	8860	2.75	5
0	8861	2.75	3
0	8862	2.75	1
0	8863	2.75	1
0	9345	2.8	3
0	9346	2.8	5
0	9347	2.8	3
0	9348	2.8	5
0	9349	2.8	8
0	9350	2.8	5
0	9351	2.8	3
0	9352	2.8	5
0	9353	2.8	3
0	9354	2.8	1
0	9355	2.8	1
0	9359	2.8	3
0	9360	2.8	5
0	9361	2.8	3
0	9362	2.8	5
0	9363	2.8	8
0	9364	2.8	5
0	9365	2.8	3
0	9366	2.8	5
0	9367	2.8	3
0	9368	2.8	1
0	9369	2.8	1
0	9642	2.85	3
0	9643	2.85	5
0	9644	2.85	3
0	9645	2.85	5
0	9646	2.85	8
0	9647	2.85	5
0	9648	2.85	3
0	9649	2.85	5
0	9650	2.85	3
0	9651	2.85	1
0	9652	2.85	1
0	9741	2.9	3
0	9742	2.9	5
0	9743	2.9	3
0	9744	2.9	5
0	9745	2.9	8
0	9746	2.9	5
0	9747	2.9	3
0	9748	2.9	5
0	9749	2.9	3
0	9750	2.9	1
0	9751	2.9	1
0	9755	2.9	3
0	9756	2.9	5
0	9757	2.9	3
0	9758	2.9	5
0	9759	2.9	8
0	9760	2.9	5
0	9761	2.9	3
0	9762	2.9	5
0	9763	2.9	3
0	9764	2.9	1
0	9765	2.9	1
0	9968	2.95	3
0	9969	2.95	5
0	9970	2.95	3
0	9971	2.95	5
0	9972	2.95	8
0	9973	2.95	5
0	9974	2.95	3
0	9975	2.95	5
0	9976	2.95	3
0	9977	2.95	1
0	9978	2.95	1
0	10089	3	3
0	10090	3	5
0	10091	3	3
0	10092	3	5
0	10093	3	8
0	10094	3	5
0	10095	3	3
0	10096	3	5
0	10097	3	3
0	10098	3	1
0	10099	3	1
0	10103	3	3
0	10104	3	5
0	10105	3	3
0	10106	3	5
0	10107	3	8
0	10108	3	5
0	10109	3	3
0	10110	3	5
0	10111	3	3
0	10112	3	1
0	10113	3	1
0	10224	3.05	3
0	10225	3.05	5
0	10226	3.05	3
0	10227	3.05	5
0	10228	3.05	8
0	10229	3.05	5
0	10230	3.05	3
0	10231	3.05	5
0	10232	3.05	3
0	10233	3.05	1
0	10234	3.05	1
0	10334	3.1	3
0	10335	3.1	5
0	10336	3.1	3
0	10337	3.1	5
0	10338	3.1	8
0	10339	3.1	5
0	10340	3.1	3
0	10341	3.1	5
0	10342	3.1	3
0	10343	3.1	1
0	10344	3.1	1
0	10348	3.1	3
0	10349	3.1	5
0	10350	3.1	3
0	10351	3.1	5
0	10352	3.1	8
0	10353	3.1	5
0	10354	3.1	3
0	10355	3.1	5
0	10356	3.1	3
0	10357	3.1	1
0	10358	3.1	1
0	10480	3.15	3
0	10481	3.15	5
0	10482	3.15	3
0	10483	3.15	5
0	10484	3.15	8
0	10485	3.15	5
0	10486	3.15	3
0	10487	3.15	5
0	10488	3.15	3
0	10489	3.15	1
0	10490	3.15	1
0	10579	3.2	3
0	10580	3.2	5
0	10581	3.2	3
0	10582	3.2	5
0	10583	3.2	8
0	10584	3.2	5
0	10585	3.2	3
0	10586	3.2	5
0	10587	3.2	3
0	10588	3.2	1
0	10589	3.2	1
0	10593	3.2	3
0	10594	3.2	5
0	10595	3.2	3
0	10596	3.2	5
0	10597	3.2	8
0	10598	3.2	5
0	10599	3.2	3
0	10600	3.2	5
0	10601	3.2	3
0	10602	3.2	1
0	10603	3.2	1
0	10714	3.25	3
0	10715	3.25	5
0	10716	3.25	3
0	10717	3.25	5
0	10718	3.25	8
0	10719	3.25	5
0	10720	3.25	3
0	10721	3.25	5
0	10722	3.25	3
0	10723	3.25	1
0	10724	3.25	1
0	10869	3.3	3
0	10870	3.3	5
0	10871	3.3	3
0	10872	3.3	5
0	10873	3.3	8
0	10874	3.3	5
0	10875	3.3	3
0	10876	3.3	5
0	10877	3.3	3
0	10878	3.3	1
0	10879	3.3	1
0	10883	3.3	3
0	10884	3.3	5
0	10885	3.3	3
0	10886	3.3	5
0	10887	3.3	8
0	10888	3.3	5
0	10889	3.3	3
0	10890	3.3	5
0	10891	3.3	3
0	10892	3.3	1
0	10893	3.3	1
0	11398	3.35	3
0	11399	3.35	5
0	11400	3.35	3
0	11401	3.35	5
0	11402	3.35	8
0	11403	3.35	5
0	11404	3.35	3
0	11405	3.35	5
0	11406	3.35	3
0	11407	3.35	1
0	11408	3.35	1
0	11590	3.4	3
0	11591	3.4	5
0	11592	3.4	3
0	11593	3.4	5
0	11594	3.4	8
0	11595	3.4	5
0	11596	3.4	3
0	11597	3.4	5
0	11598	3.4	3
0	11599	3.4	1
0	11600	3.4	1
0	11604	3.4	3
0	11605	3.4	5
0	11606	3.4	3
0	11607	3.4	5
0	11608	3.4	8
0	11609	3.4	5
0	11610	3.4	3
0	11611	3.4	5
0	11612	3.4	3
0	11613	3.4	1
0	11614	3.4	1
0	11730	3.45	3
0	11731	3.45	5
0	11732	3.45	3
0	11733	3.45	5
0	11734	3.45	8
0	11735	3.45	5
0	11736	3.45	3
0	11737	3.45	5
0	11738	3.45	3
0	11739	3.45	1
0	11740	3.45	1
0	11915	3.5	3
0	11916	3.5	5
0	11917	3.5	3
0	11918	3.5	5
0	11919	3.5	8
0	11920	3.5	5
0	11921	3.5	3
0	11922	3.5	5
0	11923	3.5	3
0	11924	3.5	1
0	11925	3.5	1
0	11929	3.5	3
0	11930	3.5	5
0	11931	3.5	3
0	11932	3.5	5
0	11933	3.5	8
0	11934	3.5	5
0	11935	3.5	3
0	11936	3.5	5
0	11937	3.5	3
0	11938	3.5	1
0	11939	3.5	1
0	12055	3.55	3
0	12056	3.55	5
0	12057	3.55	3
0	12058	3.55	5
0	12059	3.55	8
0	12060	3.55	5
0	12061	3.55	3
0	12062	3.55	5
0	12063	3.55	3
0	12064	3.55	1
0	12065	3.55	1
0	12154	3.6	3
0	12155	3.6	5
0	12156	3.6	3
0	12157	3.6	5
0	12158	3.6	8
0	12159	3.6	5
0	12160	3.6	3
0	12161	3.6	5
0	12162	3.6	3
0	12163	3.6	1
0	12164	3.6	1
0	12168	3.6	3
0	12169	3.6	5
0	12170	3.6	3
0	12171	3.6	5
0	12172	3.6	8
0	12173	3.6	5
0	12174	3.6	3
0	12175	3.6	5
0	12176	3.6	3
0	12177	3.6	1
0	12178	3.6	1
0	12289	3.65	3
0	12290	3.65	5
0	12291	3.65	3
0	12292	3.65	5
0	12293	3.65	8
0	12294	3.65	5
0	12295	3.65	3
0	12296	3.65	5
0	12297	3.65	3
0	12298	3.65	1
0	12299	3.65	1
0	12388	3.7	3
0	12389	3.7	5
0	12390	3.7	3
0	12391	3.7	5
0	12392	3.7	8
0	12393	3.7	5
0	12394	3.7	3
0	12395	3.7	5
0	12396	3.7	3
0	12397	3.7	1
0	12398	3.7	1
0	12402	3.7	3
0	12403	3.7	5
0	12404	3.7	3
0	12405	3.7	5
0	12406	3.7	8
0	12407	3.7	5
0	12408	3.7	3
0	12409	3.7	5
0	12410	3.7	3
0	12411	3.7	1
0	12412	3.7	1
0	12523	3.75	3
0	12524	3.75	5
0	12525	3.75	3
0	12526	3.75	5
0	12527	3.75	8
0	12528	3.75	5
0	12529	3.75	3
0	12530	3.75	5
0	12531	3.75	3
0	12532	3.75	1
0	12533	3.75	1
0	12622	3.8	3
0	12623	3.8	5
0	12624	3.8	3
0	12625	3.8	5
0	12626	3.8	8
0	12627	3.8	5
0	12628	3.8	3
0	12629	3.8	5
0	12630	3.8	3
0	12631	3.8	1
0	12632	3.8	1
0	12636	3.8	3
0	12637	3.8	5
0	12638	3.8	3
0	12639	3.8	5
0	12640	3.8	8
0	12641	3.8	5
0	12642	3.8	3
0	12643	3.8	5
0	12644	3.8	3
0	12645	3.8	1
0	12646	3.8	1
0	12808	3.85	3
0	12809	3.85	5
0	12810	3.85	3
0	12811	3.85	5
0	12812	3.85	8
0	12813	3.85	5
0	12814	3.85	3
0	12815	3.85	5
0	12816	3.85	3
0	12817	3.85	1
0	12818	3.85	1
0	13247	3.9	3
0	13248	3.9	5
0	13249	3.9	3
0	13250	3.9	5
0	13251	3.9	8
0	13252	3.9	5
0	13253	3.9	3
0	13254	3.9	5
0	13255	3.9	3
0	13256	3.9	1
0	13257	3.9	1
0	13261	3.9	3
0	13262	3.9	5
0	13263	3.9	3
0	13264	3.9	5
0	13265	3.9	8
0	13266	3.9	5
0	13267	3.9	3
0	13268	3.9	5
0	13269	3.9	3
0	13270	3.9	1
0	13271	3.9	1
0	13430	3.95	3
0	13431	3.95	5
0	13432	3.95	3
0	13433	3.95	5
0	13434	3.95	8
0	13435	3.95	5
0	13436	3.95	3
0	13437	3.95	5
0	13438	3.95	3
0	13439	3.95	1
0	13440	3.95	1
0	13615	4	3
0	13616	4	5
0	13617	4	3
0	13618	4	5
0	13619	4	8
0	13620	4	5
0	13621	4	3
0	13622	4	5
0	13623	4	3
0	13624	4	1
0	13625	4	1
0	13629	4	3
0	13630	4	5
0	13631	4	3
0	13632	4	5
0	13633	4	8
0	13634	4	5
0	13635	4	3
0	13636	4	5
0	13637	4	3
0	13638	4	1
0	13639	4	1
0	13819	4.05	3
0	13820	4.05	5
0	13821	4.05	3
0	13822	4.05	5
0	13823	4.05	8
0	13824	4.05	5
0	13825	4.05	3
0	13826	4.05	5
0	13827	4.05	3
0	13828	4.05	1
0	13829	4.05	1
0	13929	4.1	3
0	13930	4.1	5
0	13931	4.1	3
0	13932	4.1	5
0	13933	4.1	8
0	13934	4.1	5
0	13935	4.1	3
0	13936	4.1	5
0	13937	4.1	3
0	13938	4.1	1
0	13939	4.1	1
0	13943	4.1	3
0	13944	4.1	5
0	13945	4.1	3
0	13946	4.1	5
0	13947	4.1	8
0	13948	4.1	5
0	13949	4.1	3
0	13950	4.1	5
0	13951	4.1	3
0	13952	4.1	1
0	13953	4.1	1
0	14098	4.15	3
0	14099	4.15	5
0	14100	4.15	3
0	14101	4.15	5
0	14102	4.15	8
0	14103	4.15	5
0	14104	4.15	3
0	14105	4.15	5
0	14106	4.15	3
0	14107	4.15	1
0	14108	4.15	1
0	14197	4.2	3
0	14198	4.2	5
0	14199	4.2	3
0	14200	4.2	5
0	14201	4.2	8
0	14202	4.2	5
0	14203	4.2	3
0	14204	4.2	5
0	14205	4.2	3
0	14206	4.2	1
0	14207	4.2	1
0	14211	4.2	3
0	14212	4.2	5
0	14213	4.2	3
0	14214	4.2	5
0	14215	4.2	8
0	14216	4.2	5
0	14217	4.2	3
0	14218	4.2	5
0	14219	4.2	3
0	14220	4.2	1
0	14221	4.2	1
0	14332	4.25	3
0	14333	4.25	5
0	14334	4.25	3
0	14335	4.25	5
0	14336	4.25	8
0	14337	4.25	5
0	14338	4.25	3
0	14339	4.25	5
0	14340	4.25	3
0	14341	4.25	1
0	14342	4.25	1
0	14431	4.3	3
0	14432	4.3	5
0	14433	4.3	3
0	14434	4.3	5
0	14435	4.3	8
0	14436	4.3	5
0	14437	4.3	3
0	14438	4.3	5
0	14439	4.3	3
0	14440	4.3	1
0	14441	4.3	1
0	14445	4.3	3
0	14446	4.3	5
0	14447	4.3	3
0	14448	4.3	5
0	14449	4.3	8
0	14450	4.3	5
0	14451	4.3	3
0	14452	4.3	5
0	14453	4.3	3
0	14454	4.3	1
0	14455	4.3	1
0	14566	4.35	3
0	14567	4.35	5
0	14568	4.35	3
0	14569	4.35	5
0	14570	4.35	8
0	14571	4.35	5
0	14572	4.35	3
0	14573	4.35	5
0	14574	4.35	3
0	14575	4.35	1
0	14576	4.35	1
0	14762	4.4	3
0	14763	4.4	5
0	14764	4.4	3
0	14765	4.4	5
0	14766	4.4	8
0	14767	4.4	5
0	14768	4.4	3
0	14769	4.4	5
0	14770	4.4	3
0	14771	4.4	1
0	14772	4.4	1
0	14776	4.4	3
0	14777	4.4	5
0	14778	4.4	3
0	14779	4.4	5
0	14780	4.4	8
0	14781	4.4	5
0	14782	4.4	3
0	14783	4.4	5
0	14784	4.4	3
0	14785	4.4	1
0	14786	4.4	1
0	15205	4.45	3
0	15206	4.45	5
0	15207	4.45	3
0	15208	4.45	5
0	15209	4.45	8
0	15210	4.45	5
0	15211	4.45	3
0	15212	4.45	5
0	15213	4.45	3
0	15214	4.45	1
0	15215	4.45	1
0	15368	4.5	3
0	15369	4.5	5
0	15370	4.5	3
0	15371	4.5	5
0	15372	4.5	8
0	15373	4.5	5
0	15374	4.5	3
0	15375	4.5	5
0	15376	4.5	3
0	15377	4.5	1
0	15378	4.5	1
0	15382	4.5	3
0	15383	4.5	5
0	15384	4.5	3
0	15385	4.5	5
0	15386	4.5	8
0	15387	4.5	5
0	15388	4.5	3
0	15389	4.5	5
0	15390	4.5	3
0	15391	4.5	1
0	15392	4.5	1
0	15565	4.55	3
0	15566	4.55	5
0	15567	4.55	3
0	15568	4.55	5
0	15569	4.55	8
0	15570	4.55	5
0	15571	4.55	3
0	15572	4.55	5
0	15573	4.55	3
0	15574	4.55	1
0	15575	4.55	1
0	15756	4.6	3
0	15757	4.6	5
0	15758	4.6	3
0	15759	4.6	5
0	15760	4.6	8
0	15761	4.6	5
0	15762	4.6	3
0	15763	4.6	5
0	15764	4.6	3
0	15765	4.6	1
0	15766	4.6	1
0	15770	4.6	3
0	15771	4.6	5
0	15772	4.6	3
0	15773	4.6	5
0	15774	4.6	8
0	15775	4.6	5
0	15776	4.6	3
0	15777	4.6	5
0	15778	4.6	3
0	15779	4.6	1
0	15780	4.6	1
0	15914	4.65	3
0	15915	4.65	5
0	15916	4.65	3
0	15917	4.65	5
0	15918	4.65	8
0	15919	4.65	5
0	15920	4.65	3
0	15921	4.65	5
0	15922	4.65	3
0	15923	4.65	1
0	15924	4.65	1
0	16036	4.7	3
0	16037	4.7	5
0	16038	4.7	3
0	16039	4.7	5
0	16040	4.7	8
0	16041	4.7	5
0	16042	4.7	3
0	16043	4.7	5
0	16044	4.7	3
0	16045	4.7	1
0	16046	4.7	1
0	16050	4.7	3
0	16051	4.7	5
0	16052	4.7	3
0	16053	4.7	5
0	16054	4.7	8
0	16055	4.7	5
0	16056	4.7	3
0	16057	4.7	5
0	16058	4.7	3
0	16059	4.7	1
0	16060	4.7	1
0	16171	4.75	3
0	16172	4.75	5
0	16173	4.75	3
0	16174	4.75	5
0	16175	4.75	8
0	16176	4.75	5
0	16177	4.75	3
0	16178	4.75	5
0	16179	4.75	3
0	16180	4.75	1
0	16181	4.75	1
0	16270	4.8	3
0	16271	4.8	5
0	16272	4.8	3
0	16273	4.8	5
0	16274	4.8	8
0	16275	4.8	5
0	16276	4.8	3
0	16277	4.8	5
0	16278	4.8	3
0	16279	4.8	1
0	16280	4.8	1
0	16284	4.8	3
0	16285	4.8	5
0	16286	4.8	3
0	16287	4.8	5
0	16288	4.8	8
0	16289	4.8	5
0	16290	4.8	3
0	16291	4.8	5
0	16292	4.8	3
0	16293	4.8	1
0	16294	4.8	1
0	16405	4.85	3
0	16406	4.85	5
0	16407	4.85	3
0	16408	4.85	5
0	16409	4.85	8
0	16410	4.85	5
0	16411	4.85	3
0	16412	4.85	5
0	16413	4.85	3
0	16414	4.85	1
0	16415	4.85	1
0	16527	4.9	3
0	16528	4.9	5
0	16529	4.9	3
0	16530	4.9	5
0	16531	4.9	8
0	16532	4.9	5
0	16533	4.9	3
0	16534	4.9	5
0	16535	4.9	3
0	16536	4.9	1
0	16537	4.9	1
0	16541	4.9	3
0	16542	4.9	5
0	16543	4.9	3
0	16544	4.9	5
0	16545	4.9	8
0	16546	4.9	5
0	16547	4.9	3
0	16548	4.9	5
0	16549	4.9	3
0	16550	4.9	1
0	16551	4.9	1
0	16736	4.95	3
0	16737	4.95	5
0	16738	4.95	3
0	16739	4.95	5
0	16740	4.95	8
0	16741	4.95	5
0	16742	4.95	3
0	16743	4.95	5
0	16744	4.95	3
0	16745	4.95	1
0	16746	4.95	1
0	17150	5	3
0	17151	5	5
0	17152	5	3
0	17153	5	5
0	17154	5	8
0	17155	5	5
0	17156	5	3
0	17157	5	5
0	17158	5	3
0	17159	5	1
0	17160	5	1
0	17164	5	3
0	17165	5	5
0	17166	5	3
0	17167	5	5
0	17168	5	8
0	17169	5	5
0	17170	5	3
0	17171	5	5
0	17172	5	3
0	17173	5	1
0	17174	5	1
0	17342	5.05	3
0	17343	5.05	5
0	17344	5.05	3
0	17345	5.05	5
0	17346	5.05	8
0	17347	5.05	5
0	17348	5.05	3
0	17349	5.05	5
0	17350	5.05	3
0	17351	5.05	1
0	17352	5.05	1
0	17502	5.1	3
0	17503	5.1	5
0	17504	5.1	3
0	17505	5.1	5
0	17506	5.1	8
0	17507	5.1	5
0	17508	5.1	3
0	17509	5.1	5
0	17510	5.1	3
0	17511	5.1	1
0	17512	5.1	1
0	17516	5.1	3
0	17517	5.1	5
0	17518	5.1	3
0	17519	5.1	5
0	17520	5.1	8
0	17521	5.1	5
0	17522	5.1	3
0	17523	5.1	5
0	17524	5.1	3
0	17525	5.1	1
0	17526	5.1	1
0	17740	5.15	3
0	17741	5.15	5
0	17742	5.15	3
0	17743	5.15	5
0	17744	5.15	8
0	17745	5.15	5
0	17746	5.15	3
0	17747	5.15	5
0	17748	5.15	3
0	17749	5.15	1
0	17750	5.15	1
0	17862	5.2	3
0	17863	5.2	5
0	17864	5.2	3
0	17865	5.2	5
0	17866	5.2	8
0	17867	5.2	5
0	17868	5.2	3
0	17869	5.2	5
0	17870	5.2	3
0	17871	5.2	1
0	17872	5.2	1
0	17876	5.2	3
0	17877	5.2	5
0	17878	5.2	3
0	17879	5.2	5
0	17880	5.2	8
0	17881	5.2	5
0	17882	5.2	3
0	17883	5.2	5
0	17884	5.2	3
0	17885	5.2	1
0	17886	5.2	1
0	18020	5.25	3
0	18021	5.25	5
0	18022	5.25	3
0	18023	5.25	5
0	18024	5.25	8
0	18025	5.25	5
0	18026	5.25	3
0	18027	5.25	5
0	18028	5.25	3
0	18029	5.25	1
0	18030	5.25	1
0	18119	5.3	3
0	18120	5.3	5
0	18121	5.3	3
0	18122	5.3	5
0	18123	5.3	8
0	18124	5.3	5
0	18125	5.3	3
0	18126	5.3	5
0	18127	5.3	3
0	18128	5.3	1
0	18129	5.3	1
0	18133	5.3	3
0	18134	5.3	5
0	18135	5.3	3
0	18136	5.3	5
0	18137	5.3	8
0	18138	5.3	5
0	18139	5.3	3
0	18140	5.3	5
0	18141	5.3	3
0	18142	5.3	1
0	18143	5.3	1
0	18254	5.35	3
0	18255	5.35	5
0	18256	5.35	3
0	18257	5.35	5
0	18258	5.35	8
0	18259	5.35	5
0	18260	5.35	3
0	18261	5.35	5
0	18262	5.35	3
0	18263	5.35	1
0	18264	5.35	1
0	18353	5.4	3
0	18354	5.4	5
0	18355	5.4	3
0	18356	5.4	5
0	18357	5.4	8
0	18358	5.4	5
0	18359	5.4	3
0	18360	5.4	5
0	18361	5.4	3
0	18362	5.4	1
0	18363	5.4	1
0	18367	5.4	3
0	18368	5.4	5
0	18369	5.4	3
0	18370	5.4	5
0	18371	5.4	8
0	18372	5.4	5
0	18373	5.4	3
0	18374	5.4	5
0	18375	5.4	3
0	18376	5.4	1
0	18377	5.4	1
0	18493	5.45	3
0	18494	5.45	5
0	18495	5.45	3
0	18496	5.45	5
0	18497	5.45	8
0	18498	5.45	5
0	18499	5.45	3
0	18500	5.45	5
0	18501	5.45	3
0	18502	5.45	1
0	18503	5.45	1
0	18654	5.5	3
0	18655	5.5	5
0	18656	5.5	3
0	18657	5.5	5
0	18658	5.5	8
0	18659	5.5	5
0	18660	5.5	3
0	18661	5.5	5
0	18662	5.5	3
0	18663	5.5	1
0	18664	5.5	1
0	18668	5.5	3
0	18669	5.5	5
0	18670	5.5	3
0	18671	5.5	5
0	18672	5.5	8
0	18673	5.5	5
0	18674	5.5	3
0	18675	5.5	5
0	18676	5.5	3
0	18677	5.5	1
0	18678	5.5	1
0	19111	5.55	3
0	19112	5.55	5
0	19113	5.55	3
0	19114	5.55	5
0	19115	5.55	8
0	19116	5.55	5
0	19117	5.55	3
0	19118	5.55	5
0	19119	5.55	3
0	19120	5.55	1
0	19121	5.55	1
0	19256	5.6	3
0	19257	5.6	5
0	19258	5.6	3
0	19259	5.6	5
0	19260	5.6	8
0	19261	5.6	5
0	19262	5.6	3
0	19263	5.6	5
0	19264	5.6	3
0	19265	5.6	1
0	19266	5.6	1
0	19270	5.6	3
0	19271	5.6	5
0	19272	5.6	3
0	19273	5.6	5
0	19274	5.6	8
0	19275	5.6	5
0	19276	5.6	3
0	19277	5.6	5
0	19278	5.6	3
0	19279	5.6	1
0	19280	5.6	1
0	19483	5.65	3
0	19484	5.65	5
0	19485	5.65	3
0	19486	5.65	5
0	19487	5.65	8
0	19488	5.65	5
0	19489	5.65	3
0	19490	5.65	5
0	19491	5.65	3
0	19492	5.65	1
0	19493	5.65	1
0	19702	5.7	3
0	19703	5.7	5
0	19704	5.7	3
0	19705	5.7	5
0	19706	5.7	8
0	19707	5.7	5
0	19708	5.7	3
0	19709	5.7	5
0	19710	5.7	3
0	19711	5.7	1
0	19712	5.7	1
0	19716	5.7	3
0	19717	5.7	5
0	19718	5.7	3
0	19719	5.7	5
0	19720	5.7	8
0	19721	5.7	5
0	19722	5.7	3
0	19723	5.7	5
0	19724	5.7	3
0	19725	5.7	1
0	19726	5.7	1
0	19860	5.75	3
0	19861	5.75	5
0	19862	5.75	3
0	19863	5.75	5
0	19864	5.75	8
0	19865	5.75	5
0	19866	5.75	3
0	19867	5.75	5
0	19868	5.75	3
0	19869	5.75	1
0	19870	5.75	1
0	20028	5.8	3
0	20029	5.8	5
0	20030	5.8	3
0	20031	5.8	5
0	20032	5.8	8
0	20033	5.8	5
0	20034	5.8	3
0	20035	5.8	5
0	20036	5.8	3
0	20037	5.8	1
0	20038	5.8	1
0	20042	5.8	3
0	20043	5.8	5
0	20044	5.8	3
0	20045	5.8	5
0	20046	5.8	8
0	20047	5.8	5
0	20048	5.8	3
0	20049	5.8	5
0	20050	5.8	3
0	20051	5.8	1
0	20052	5.8	1
0	20163	5.85	3
0	20164	5.85	5
0	20165	5.85	3
0	20166	5.85	5
0	20167	5.85	8
0	20168	5.85	5
0	20169	5.85	3
0	20170	5.85	5
0	20171	5.85	3
0	20172	5.85	1
0	20173	5.85	1
0	20262	5.9	3
0	20263	5.9	5
0	20264	5.9	3
0	20265	5.9	5
0	20266	5.9	8
0	20267	5.9	5
0	20268	5.9	3
0	20269	5.9	5
0	20270	5.9	3
0	20271	5.9	1
0	20272	5.9	1
0	20276	5.9	3
0	20277	5.9	5
0	20278	5.9	3
0	20279	5.9	5
0	20280	5.9	8
0	20281	5.9	5
0	20282	5.9	3
0	20283	5.9	5
0	20284	5.9	3
0	20285	5.9	1
0	20286	5.9	1
0	20397	5.95	3
0	20398	5.95	5
0	20399	5.95	3
0	20400	5.95	5
0	20401	5.95	8
0	20402	5.95	5
0	20403	5.95	3
0	20404	5.95	5
0	20405	5.95	3
0	20406	5.95	1
0	20407	5.95	1
0	20530	6	3
0	20531	6	5
0	20532	6	3
0	20533	6	5
0	20534	6	8
0	20535	6	5
0	20536	6	3
0	20537	6	5
0	20538	6	3
0	20539	6	1
0	20540	6	1
0	20544	6	3
0	20545	6	5
0	20546	6	3
0	20547	6	5
0	20548	6	8
0	20549	6	5
0	20550	6	3
0	20551	6	5
0	20552	6	3
0	20553	6	1
0	20554	6	1
0	20693	6.05	3
0	20694	6.05	5
0	20695	6.05	3
0	20696	6.05	5
0	20697	6.05	8
0	20698	6.05	5
0	20699	6.05	3
0	20700	6.05	5
0	20701	6.05	3
0	20702	6.05	1
0	20703	6.05	1
0	21084	6.1	3
0	21085	6.1	5
0	21086	6.1	3
0	21087	6.1	5
0	21088	6.1	8
0	21089	6.1	5
0	21090	6.1	3
0	21091	6.1	5
0	21092	6.1	3
0	21093	6.1	1
0	21094	6.1	1
0	21098	6.1	3
0	21099	6.1	5
0	21100	6.1	3
0	21101	6.1	5
0	21102	6.1	8
0	21103	6.1	5
0	21104	6.1	3
0	21105	6.1	5
0	21106	6.1	3
0	21107	6.1	1
0	21108	6.1	1
0	21322	6.15	3
0	21323	6.15	5
0	21324	6.15	3
0	21325	6.15	5
0	21326	6.15	8
0	21327	6.15	5
0	21328	6.15	3
0	21329	6.15	5
0	21330	6.15	3
0	21331	6.15	1
0	21332	6.15	1
0	21472	6.2	3
0	21473	6.2	5
0	21474	6.2	3
0	21475	6.2	5
0	21476	6.2	8
0	21477	6.2	5
0	21478	6.2	3
0	21479	6.2	5
0	21480	6.2	3
0	21481	6.2	1
0	21482	6.2	1
0	21486	6.2	3
0	21487	6.2	5
0	21488	6.2	3
0	21489	6.2	5
0	21490	6.2	8
0	21491	6.2	5
0	21492	6.2	3
0	21493	6.2	5
0	21494	6.2	3
0	21495	6.2	1
0	21496	6.2	1
0	21704	6.25	3
0	21705	6.25	5
0	21706	6.25	3
0	21707	6.25	5
0	21708	6.25	8
0	21709	6.25	5
0	21710	6.25	3
0	21711	6.25	5
0	21712	6.25	3
0	21713	6.25	1
0	21714	6.25	1
0	21843	6.3	3
0	21844	6.3	5
0	21845	6.3	3
0	21846	6.3	5
0	21847	6.3	8
0	21848	6.3	5
0	21849	6.3	3
0	21850	6.3	5
0	21851	6.3	3
0	21852	6.3	1
0	21853	6.3	1
0	21857	6.3	3
0	21858	6.3	5
0	21859	6.3	3
0	21860	6.3	5
0	21861	6.3	8
0	21862	6.3	5
0	21863	6.3	3
0	21864	6.3	5
0	21865	6.3	3
0	21866	6.3	1
0	21867	6.3	1
0	22006	6.35	3
0	22007	6.35	5
0	22008	6.35	3
0	22009	6.35	5
0	22010	6.35	8
0	22011	6.35	5
0	22012	6.35	3
0	22013	6.35	5
0	22014	6.35	3
0	22015	6.35	1
0	22016	6.35	1
0	22105	6.4	3
0	22106	6.4	5
0	22107	6.4	3
0	22108	6.4	5
0	22109	6.4	8
0	22110	6.4	5
0	22111	6.4	3
0	22112	6.4	5
0	22113	6.4	3
0	22114	6.4	1
0	22115	6.4	1
0	22119	6.4	3
0	22120	6.4	5
0	22121	6.4	3
0	22122	6.4	5
0	22123	6.4	8
0	22124	6.4	5
0	22125	6.4	3
0	22126	6.4	5
0	22127	6.4	3
0	22128	6.4	1
0	22129	6.4	1
0	22240	6.45	3
0	22241	6.45	5
0	22242	6.45	3
0	22243	6.45	5
0	22244	6.45	8
0	22245	6.45	5
0	22246	6.45	3
0	22247	6.45	5
0	22248	6.45	3
0	22249	6.45	1
0	22250	6.45	1
0	22350	6.5	3
0	22351	6.5	5
0	22352	6.5	3
0	22353	6.5	5
0	22354	6.5	8
0	22355	6.5	5
0	22356	6.5	3
0	22357	6.5	5
0	22358	6.5	3
0	22359	6.5	1
0	22360	6.5	1
0	22364	6.5	3
0	22365	6.5	5
0	22366	6.5	3
0	22367	6.5	5
0	22368	6.5	8
0	22369	6.5	5
0	22370	6.5	3
0	22371	6.5	5
0	22372	6.5	3
0	22373	6.5	1
0	22374	6.5	1
0	22531	6.55	3
0	22532	6.55	5
0	22533	6.55	3
0	22534	6.55	5
0	22535	6.55	8
0	22536	6.55	5
0	22537	6.55	3
0	22538	6.55	5
0	22539	6.55	3
0	22540	6.55	1
0	22541	6.55	1
0	22653	6.6	3
0	22654	6.6	5
0	22655	6.6	3
0	22656	6.6	5
0	22657	6.6	8
0	22658	6.6	5
0	22659	6.6	3
0	22660	6.6	5
0	22661	6.6	3
0	22662	6.6	1
0	22663	6.6	1
0	22667	6.6	3
0	22668	6.6	5
0	22669	6.6	3
0	22670	6.6	5
0	22671	6.6	8
0	22672	6.6	5
0	22673	6.6	3
0	22674	6.6	5
0	22675	6.6	3
0	22676	6.6	1
0	22677	6.6	1
0	23088	6.65	3
0	23089	6.65	5
0	23090	6.65	3
0	23091	6.65	5
0	23092	6.65	8
0	23093	6.65	5
0	23094	6.65	3
0	23095	6.65	5
0	23096	6.65	3
0	23097	6.65	1
0	23098	6.65	1
0	23447	6.7	3
0	23448	6.7	5
0	23449	6.7	3
0	23450	6.7	5
0	23451	6.7	8
0	23452	6.7	5
0	23453	6.7	3
0	23454	6.7	5
0	23455	6.7	3
0	23456	6.7	1
0	23457	6.7	1
0	23461	6.7	3
0	23462	6.7	5
0	23463	6.7	3
0	23464	6.7	5
0	23465	6.7	8
0	23466	6.7	5
0	23467	6.7	3
0	23468	6.7	5
0	23469	6.7	3
0	23470	6.7	1
0	23471	6.7	1
0	23891	6.75	3
0	23892	6.75	5
0	23893	6.75	3
0	23894	6.75	5
0	23895	6.75	8
0	23896	6.75	5
0	23897	6.75	3
0	23898	6.75	5
0	23899	6.75	3
0	23900	6.75	1
0	23901	6.75	1
0	24211	6.8	3
0	24212	6.8	5
0	24213	6.8	3
0	24214	6.8	5
0	24215	6.8	8
0	24216	6.8	5
0	24217	6.8	3
0	24218	6.8	5
0	24219	6.8	3
0	24220	6.8	1
0	24221	6.8	1
0	24225	6.8	3
0	24226	6.8	5
0	24227	6.8	3
0	24228	6.8	5
0	24229	6.8	8
0	24230	6.8	5
0	24231	6.8	3
0	24232	6.8	5
0	24233	6.8	3
0	24234	6.8	1
0	24235	6.8	1
0	24384	6.85	3
0	24385	6.85	5
0	24386	6.85	3
0	24387	6.85	5
0	24388	6.85	8
0	24389	6.85	5
0	24390	6.85	3
0	24391	6.85	5
0	24392	6.85	3
0	24393	6.85	1
0	24394	6.85	1
0	24506	6.9	3
0	24507	6.9	5
0	24508	6.9	3
0	24509	6.9	5
0	24510	6.9	8
0	24511	6.9	5
0	24512	6.9	3
0	24513	6.9	5
0	24514	6.9	3
0	24515	6.9	1
0	24516	6.9	1
0	24520	6.9	3
0	24521	6.9	5
0	24522	6.9	3
0	24523	6.9	5
0	24524	6.9	8
0	24525	6.9	5
0	24526	6.9	3
0	24527	6.9	5
0	24528	6.9	3
0	24529	6.9	1
0	24530	6.9	1
0	24658	6.95	3
0	24659	6.95	5
0	24660	6.95	3
0	24661	6.95	5
0	24662	6.95	8
0	24663	6.95	5
0	24664	6.95	3
0	24665	6.95	5
0	24666	6.95	3
0	24667	6.95	1
0	24668	6.95	1
0	24768	7	3
0	24769	7	5
0	24770	7	3
0	24771	7	5
0	24772	7	8
0	24773	7	5
0	24774	7	3
0	24775	7	5
0	24776	7	3
0	24777	7	1
0	24778	7	1
0	24782	7	3
0	24783	7	5
0	24784	7	3
0	24785	7	5
0	24786	7	8
0	24787	7	5
0	24788	7	3
0	24789	7	5
0	24790	7	3
0	24791	7	1
0	24792	7	1
0	24903	7.05	3
0	24904	7.05	5
0	24905	7.05	3
0	24906	7.05	5
0	24907	7.05	8
0	24908	7.05	5
0	24909	7.05	3
0	24910	7.05	5
0	24911	7.05	3
0	24912	7.05	1
0	24913	7.05	1
0	25126	7.1	3
0	25127	7.1	5
0	25128	7.1	3
0	25129	7.1	5
0	25130	7.1	8
0	25131	7.1	5
0	25132	7.1	3
0	25133	7.1	5
0	25134	7.1	3
0	25135	7.1	1
0	25136	7.1	1
0	25140	7.1	3
0	25141	7.1	5
0	25142	7.1	3
0	25143	7.1	5
0	25144	7.1	8
0	25145	7.1	5
0	25146	7.1	3
0	25147	7.1	5
0	25148	7.1	3
0	25149	7.1	1
0	25150	7.1	1
0	25352	7.15	3
0	25353	7.15	5
0	25354	7.15	3
0	25355	7.15	5
0	25356	7.15	8
0	25357	7.15	5
0	25358	7.15	3
0	25359	7.15	5
0	25360	7.15	3
0	25361	7.15	1
0	25362	7.15	1
0	25702	7.2	3
0	25703	7.2	5
0	25704	7.2	3
0	25705	7.2	5
0	25706	7.2	8
0	25707	7.2	5
0	25708	7.2	3
0	25709	7.2	5
0	25710	7.2	3
0	25711	7.2	1
0	25712	7.2	1
0	25716	7.2	3
0	25717	7.2	5
0	25718	7.2	3
0	25719	7.2	5
0	25720	7.2	8
0	25721	7.2	5
0	25722	7.2	3
0	25723	7.2	5
0	25724	7.2	3
0	25725	7.2	1
0	25726	7.2	1
0	25983	7.25	3
0	25984	7.25	5
0	25985	7.25	3
0	25986	7.25	5
0	25987	7.25	8
0	25988	7.25	5
0	25989	7.25	3
0	25990	7.25	5
0	25991	7.25	3
0	25992	7.25	1
0	25993	7.25	1
0	26167	7.3	3
0	26168	7.3	5
0	26169	7.3	3
0	26170	7.3	5
0	26171	7.3	8
0	26172	7.3	5
0	26173	7.3	3
0	26174	7.3	5
0	26175	7.3	3
0	26176	7.3	1
0	26177	7.3	1
0	26181	7.3	3
0	26182	7.3	5
0	26183	7.3	3
0	26184	7.3	5
0	26185	7.3	8
0	26186	7.3	5
0	26187	7.3	3
0	26188	7.3	5
0	26189	7.3	3
0	26190	7.3	1
0	26191	7.3	1
0	26440	7.35	3
0	26441	7.35	5
0	26442	7.35	3
0	26443	7.35	5
0	26444	7.35	8
0	26445	7.35	5
0	26446	7.35	3
0	26447	7.35	5
0	26448	7.35	3
0	26449	7.35	1
0	26450	7.35	1
0	26650	7.4	3
0	26651	7.4	5
0	26652	7.4	3
0	26653	7.4	5
0	26654	7.4	8
0	26655	7.4	5
0	26656	7.4	3
0	26657	7.4	5
0	26658	7.4	3
0	26659	7.4	1
0	26660	7.4	1
0	26664	7.4	3
0	26665	7.4	5
0	26666	7.4	3
0	26667	7.4	5
0	26668	7.4	8
0	26669	7.4	5
0	26670	7.4	3
0	26671	7.4	5
0	26672	7.4	3
0	26673	7.4	1
0	26674	7.4	1
0	26865	7.45	3
0	26866	7.45	5
0	26867	7.45	3
0	26868	7.45	5
0	26869	7.45	8
0	26870	7.45	5
0	26871	7.45	3
0	26872	7.45	5
0	26873	7.45	3
0	26874	7.45	1
0	26875	7.45	1
0	26987	7.5	3
0	26988	7.5	5
0	26989	7.5	3
0	26990	7.5	5
0	26991	7.5	8
0	26992	7.5	5
0	26993	7.5	3
0	26994	7.5	5
0	26995	7.5	3
0	26996	7.5	1
0	26997	7.5	1
0	27001	7.5	3
0	27002	7.5	5
0	27003	7.5	3
0	27004	7.5	5
0	27005	7.5	8
0	27006	7.5	5
0	27007	7.5	3
0	27008	7.5	5
0	27009	7.5	3
0	27010	7.5	1
0	27011	7.5	1
0	27191	7.55	3
0	27192	7.55	5
0	27193	7.55	3
0	27194	7.55	5
0	27195	7.55	8
0	27196	7.55	5
0	27197	7.55	3
0	27198	7.55	5
0	27199	7.55	3
0	27200	7.55	1
0	27201	7.55	1
0	27350	7.6	3
0	27351	7.6	5
0	27352	7.6	3
0	27353	7.6	5
0	27354	7.6	8
0	27355	7.6	5
0	27356	7.6	3
0	27357	7.6	5
0	27358	7.6	3
0	27359	7.6	1
0	27360	7.6	1
0	27364	7.6	3
0	27365	7.6	5
0	27366	7.6	3
0	27367	7.6	5
0	27368	7.6	8
0	27369	7.6	5
0	27370	7.6	3
0	27371	7.6	5
0	27372	7.6	3
0	27373	7.6	1
0	27374	7.6	1
0	27593	7.65	3
0	27594	7.65	5
0	27595	7.65	3
0	27596	7.65	5
0	27597	7.65	8
0	27598	7.65	5
0	27599	7.65	3
0	27600	7.65	5
0	27601	7.65	3
0	27602	7.65	1
0	27603	7.65	1
0	27757	7.7	3
0	27758	7.7	5
0	27759	7.7	3
0	27760	7.7	5
0	27761	7.7	8
0	27762	7.7	5
0	27763	7.7	3
0	27764	7.7	5
0	27765	7.7	3
0	27766	7.7	1
0	27767	7.7	1
0	27771	7.7	3
0	27772	7.7	5
0	27773	7.7	3
0	27774	7.7	5
0	27775	7.7	8
0	27776	7.7	5
0	27777	7.7	3
0	27778	7.7	5
0	27779	7.7	3
0	27780	7.7	1
0	27781	7.7	1
0	28145	7.75	3
0	28146	7.75	5
0	28147	7.75	3
0	28148	7.75	5
0	28149	7.75	8
0	28150	7.75	5
0	28151	7.75	3
0	28152	7.75	5
0	28153	7.75	3
0	28154	7.75	1
0	28155	7.75	1
0	28376	7.8	3
0	28377	7.8	5
0	28378	7.8	3
0	28379	7.8	5
0	28380	7.8	8
0	28381	7.8	5
0	28382	7.8	3
0	28383	7.8	5
0	28384	7.8	3
0	28385	7.8	1
0	28386	7.8	1
0	28390	7.8	3
0	28391	7.8	5
0	28392	7.8	3
0	28393	7.8	5
0	28394	7.8	8
0	28395	7.8	5
0	28396	7.8	3
0	28397	7.8	5
0	28398	7.8	3
0	28399	7.8	1
0	28400	7.8	1
0	28615	7.85	3
0	28616	7.85	5
0	28617	7.85	3
0	28618	7.85	5
0	28619	7.85	8
0	28620	7.85	5
0	28621	7.85	3
0	28622	7.85	5
0	28623	7.85	3
0	28624	7.85	1
0	28625	7.85	1
0	28854	7.9	3
0	28855	7.9	5
0	28856	7.9	3
0	28857	7.9	5
0	28858	7.9	8
0	28859	7.9	5
0	28860	7.9	3
0	28861	7.9	5
0	28862	7.9	3
0	28863	7.9	1
0	28864	7.9	1
0	28868	7.9	3
0	28869	7.9	5
0	28870	7.9	3
0	28871	7.9	5
0	28872	7.9	8
0	28873	7.9	5
0	28874	7.9	3
0	28875	7.9	5
0	28876	7.9	3
0	28877	7.9	1
0	28878	7.9	1
0	29038	7.95	3
0	29039	7.95	5
0	29040	7.95	3
0	29041	7.95	5
0	29042	7.95	8
0	29043	7.95	5
0	29044	7.95	3
0	29045	7.95	5
0	29046	7.95	3
0	29047	7.95	1
0	29048	7.95	1
0	29179	8	3
0	29180	8	5
0	29181	8	3
0	29182	8	5
0	29183	8	8
0	29184	8	5
0	29185	8	3
0	29186	8	5
0	29187	8	3
0	29188	8	1
0	29189	8	1
0	29193	8	3
0	29194	8	5
0	29195	8	3
0	29196	8	5
0	29197	8	8
0	29198	8	5
0	29199	8	3
0	29200	8	5
0	29201	8	3
0	29202	8	1
0	29203	8	1
0	29360	8.05	3
0	29361	8.05	5
0	29362	8.05	3
0	29363	8.05	5
0	29364	8.05	8
0	29365	8.05	5
0	29366	8.05	3
0	29367	8.05	5
0	29368	8.05	3
0	29369	8.05	1
0	29370	8.05	1
0	29511	8.1	3
0	29512	8.1	5
0	29513	8.1	3
0	29514	8.1	5
0	29515	8.1	8
0	29516	8.1	5
0	29517	8.1	3
0	29518	8.1	5
0	29519	8.1	3
0	29520	8.1	1
0	29521	8.1	1
0	29525	8.1	3
0	29526	8.1	5
0	29527	8.1	3
0	29528	8.1	5
0	29529	8.1	8
0	29530	8.1	5
0	29531	8.1	3
0	29532	8.1	5
0	29533	8.1	3
0	29534	8.1	1
0	29535	8.1	1
0	29662	8.15	3
0	29663	8.15	5
0	29664	8.15	3
0	29665	8.15	5
0	29666	8.15	8
0	29667	8.15	5
0	29668	8.15	3
0	29669	8.15	5
0	29670	8.15	3
0	29671	8.15	1
0	29672	8.15	1
0	29878	8.2	3
0	29879	8.2	5
0	29880	8.2	3
0	29881	8.2	5
0	29882	8.2	8
0	29883	8.2	5
0	29884	8.2	3
0	29885	8.2	5
0	29886	8.2	3
0	29887	8.2	1
0	29888	8.2	1
0	29892	8.2	3
0	29893	8.2	5
0	29894	8.2	3
0	29895	8.2	5
0	29896	8.2	8
0	29897	8.2	5
0	29898	8.2	3
0	29899	8.2	5
0	29900	8.2	3
0	29901	8.2	1
0	29902	8.2	1
0	30057	8.25	3
0	30058	8.25	5
0	30059	8.25	3
0	30060	8.25	5
0	30061	8.25	8
0	30062	8.25	5
0	30063	8.25	3
0	30064	8.25	5
0	30065	8.25	3
0	30066	8.25	1
0	30067	8.25	1
0	30416	8.3	3
0	30417	8.3	5
0	30418	8.3	3
0	30419	8.3	5
0	30420	8.3	8
0	30421	8.3	5
0	30422	8.3	3
0	30423	8.3	5
0	30424	8.3	3
0	30425	8.3	1
0	30426	8.3	1
0	30430	8.3	3
0	30431	8.3	5
0	30432	8.3	3
0	30433	8.3	5
0	30434	8.3	8
0	30435	8.3	5
0	30436	8.3	3
0	30437	8.3	5
0	30438	8.3	3
0	30439	8.3	1
0	30440	8.3	1
0	30659	8.35	3
0	30660	8.35	5
0	30661	8.35	3
0	30662	8.35	5
0	30663	8.35	8
0	30664	8.35	5
0	30665	8.35	3
0	30666	8.35	5
0	30667	8.35	3
0	30668	8.35	1
0	30669	8.35	1
0	30865	8.4	3
0	30866	8.4	5
0	30867	8.4	3
0	30868	8.4	5
0	30869	8.4	8
0	30870	8.4	5
0	30871	8.4	3
0	30872	8.4	5
0	30873	8.4	3
0	30874	8.4	1
0	30875	8.4	1
0	30879	8.4	3
0	30880	8.4	5
0	30881	8.4	3
0	30882	8.4	5
0	30883	8.4	8
0	30884	8.4	5
0	30885	8.4	3
0	30886	8.4	5
0	30887	8.4	3
0	30888	8.4	1
0	30889	8.4	1
0	31174	8.45	3
0	31175	8.45	5
0	31176	8.45	3
0	31177	8.45	5
0	31178	8.45	8
0	31179	8.45	5
0	31180	8.45	3
0	31181	8.45	5
0	31182	8.45	3
0	31183	8.45	1
0	31184	8.45	1
0	31281	8.5	3
0	31282	8.5	5
0	31283	8.5	3
0	31284	8.5	5
0	31285	8.5	8
0	31286	8.5	5
0	31287	8.5	3
0	31288	8.5	5
0	31289	8.5	3
0	31290	8.5	1
0	31291	8.5	1
0	31295	8.5	3
0	31296	8.5	5
0	31297	8.5	3
0	31298	8.5	5
0	31299	8.5	8
0	31300	8.5	5
0	31301	8.5	3
0	31302	8.5	5
0	31303	8.5	3
0	31304	8.5	1
0	31305	8.5	1
0	31462	8.55	3
0	31463	8.55	5
0	31464	8.55	3
0	31465	8.55	5
0	31466	8.55	8
0	31467	8.55	5
0	31468	8.55	3
0	31469	8.55	5
0	31470	8.55	3
0	31471	8.55	1
0	31472	8.55	1
0	31589	8.6	3
0	31590	8.6	5
0	31591	8.6	3
0	31592	8.6	5
0	31593	8.6	8
0	31594	8.6	5
0	31595	8.6	3
0	31596	8.6	5
0	31597	8.6	3
0	31598	8.6	1
0	31599	8.6	1
0	31603	8.6	3
0	31604	8.6	5
0	31605	8.6	3
0	31606	8.6	5
0	31607	8.6	8
0	31608	8.6	5
0	31609	8.6	3
0	31610	8.6	5
0	31611	8.6	3
0	31612	8.6	1
0	31613	8.6	1
0	31783	8.65	3
0	31784	8.65	5
0	31785	8.65	3
0	31786	8.65	5
0	31787	8.65	8
0	31788	8.65	5
0	31789	8.65	3
0	31790	8.65	5
0	31791	8.65	3
0	31792	8.65	1
0	31793	8.65	1
0	31932	8.7	3
0	31933	8.7	5
0	31934	8.7	3
0	31935	8.7	5
0	31936	8.7	8
0	31937	8.7	5
0	31938	8.7	3
0	31939	8.7	5
0	31940	8.7	3
0	31941	8.7	1
0	31942	8.7	1
0	31946	8.7	3
0	31947	8.7	5
0	31948	8.7	3
0	31949	8.7	5
0	31950	8.7	8
0	31951	8.7	5
0	31952	8.7	3
0	31953	8.7	5
0	31954	8.7	3
0	31955	8.7	1
0	31956	8.7	1
0	32191	8.75	3
0	32192	8.75	5
0	32193	8.75	3
0	32194	8.75	5
0	32195	8.75	8
0	32196	8.75	5
0	32197	8.75	3
0	32198	8.75	5
0	32199	8.75	3
0	32200	8.75	1
0	32201	8.75	1
0	32331	8.8	3
0	32332	8.8	5
0	32333	8.8	3
0	32334	8.8	5
0	32335	8.8	8
0	32336	8.8	5
0	32337	8.8	3
0	32338	8.8	5
0	32339	8.8	3
0	32340	8.8	1
0	32341	8.8	1
0	32345	8.8	3
0	32346	8.8	5
0	32347	8.8	3
0	32348	8.8	5
0	32349	8.8	8
0	32350	8.8	5
0	32351	8.8	3
0	32352	8.8	5
0	32353	8.8	3
0	32354	8.8	1
0	32355	8.8	1
0	32734	8.85	3
0	32735	8.85	5
0	32736	8.85	3
0	32737	8.85	5
0	32738	8.85	8
0	32739	8.85	5
0	32740	8.85	3
0	32741	8.85	5
0	32742	8.85	3
0	32743	8.85	1
0	32744	8.85	1
0	32938	8.9	3
0	32939	8.9	5
0	32940	8.9	3
0	32941	8.9	5
0	32942	8.9	8
0	32943	8.9	5
0	32944	8.9	3
0	32945	8.9	5
0	32946	8.9	3
0	32947	8.9	1
0	32948	8.9	1
0	32952	8.9	3
0	32953	8.9	5
0	32954	8.9	3
0	32955	8.9	5
0	32956	8.9	8
0	32957	8.9	5
0	32958	8.9	3
0	32959	8.9	5
0	32960	8.9	3
0	32961	8.9	1
0	32962	8.9	1
0	33186	8.95	3
0	33187	8.95	5
0	33188	8.95	3
0	33189	8.95	5
0	33190	8.95	8
0	33191	8.95	5
0	33192	8.95	3
0	33193	8.95	5
0	33194	8.95	3
0	33195	8.95	1
0	33196	8.95	1
0	33388	9	3
0	33389	9	5
0	33390	9	3
0	33391	9	5
0	33392	9	8
0	33393	9	5
0	33394	9	3
0	33395	9	5
0	33396	9	3
0	33397	9	1
0	33398	9	1
0	33402	9	3
0	33403	9	5
0	33404	9	3
0	33405	9	5
0	33406	9	8
0	33407	9	5
0	33408	9	3
0	33409	9	5
0	33410	9	3
0	33411	9	1
0	33412	9	1
0	33523	9.05	3
0	33524	9.05	5
0	33525	9.05	3
0	33526	9.05	5
0	33527	9.05	8
0	33528	9.05	5
0	33529	9.05	3
0	33530	9.05	5
0	33531	9.05	3
0	33532	9.05	1
0	33533	9.05	1
0	33679	9.1	3
0	33680	9.1	5
0	33681	9.1	3
0	33682	9.1	5
0	33683	9.1	8
0	33684	9.1	5
0	33685	9.1	3
0	33686	9.1	5
0	33687	9.1	3
0	33688	9.1	1
0	33689	9.1	1
0	33693	9.1	3
0	33694	9.1	5
0	33695	9.1	3
0	33696	9.1	5
0	33697	9.1	8
0	33698	9.1	5
0	33699	9.1	3
0	33700	9.1	5
0	33701	9.1	3
0	33702	9.1	1
0	33703	9.1	1
0	33850	9.15	3
0	33851	9.15	5
0	33852	9.15	3
0	33853	9.15	5
0	33854	9.15	8
0	33855	9.15	5
0	33856	9.15	3
0	33857	9.15	5
0	33858	9.15	3
0	33859	9.15	1
0	33860	9.15	1
0	33993	9.2	3
0	33994	9.2	5
0	33995	9.2	3
0	33996	9.2	5
0	33997	9.2	8
0	33998	9.2	5
0	33999	9.2	3
0	34000	9.2	5
0	34001	9.2	3
0	34002	9.2	1
0	34003	9.2	1
0	34007	9.2	3
0	34008	9.2	5
0	34009	9.2	3
0	34010	9.2	5
0	34011	9.2	8
0	34012	9.2	5
0	34013	9.2	3
0	34014	9.2	5
0	34015	9.2	3
0	34016	9.2	1
0	34017	9.2	1
0	34133	9.25	3
0	34134	9.25	5
0	34135	9.25	3
0	34136	9.25	5
0	34137	9.25	8
0	34138	9.25	5
0	34139	9.25	3
0	34140	9.25	5
0	34141	9.25	3
0	34142	9.25	1
0	34143	9.25	1
0	34328	9.3	3
0	34329	9.3	5
0	34330	9.3	3
0	34331	9.3	5
0	34332	9.3	8
0	34333	9.3	5
0	34334	9.3	3
0	34335	9.3	5
0	34336	9.3	3
0	34337	9.3	1
0	34338	9.3	1
0	34342	9.3	3
0	34343	9.3	5
0	34344	9.3	3
0	34345	9.3	5
0	34346	9.3	8
0	34347	9.3	5
0	34348	9.3	3
0	34349	9.3	5
0	34350	9.3	3
0	34351	9.3	1
0	34352	9.3	1
0	34493	9.35	3
0	34494	9.35	5
0	34495	9.35	3
0	34496	9.35	5
0	34497	9.35	8
0	34498	9.35	5
0	34499	9.35	3
0	34500	9.35	5
0	34501	9.35	3
0	34502	9.35	1
0	34503	9.35	1
0	34788	9.4	3
0	34789	9.4	5
0	34790	9.4	3
0	34791	9.4	5
0	34792	9.4	8
0	34793	9.4	5
0	34794	9.4	3
0	34795	9.4	5
0	34796	9.4	3
0	34797	9.4	1
0	34798	9.4	1
0	34802	9.4	3
0	34803	9.4	5
0	34804	9.4	3
0	34805	9.4	5
0	34806	9.4	8
0	34807	9.4	5
0	34808	9.4	3
0	34809	9.4	5
0	34810	9.4	3
0	34811	9.4	1
0	34812	9.4	1
0	34959	9.45	3
0	34960	9.45	5
0	34961	9.45	3
0	34962	9.45	5
0	34963	9.45	8
0	34964	9.45	5
0	34965	9.45	3
0	34966	9.45	5
0	34967	9.45	3
0	34968	9.45	1
0	34969	9.45	1
0	35194	9.5	3
0	35195	9.5	5
0	35196	9.5	3
0	35197	9.5	5
0	35198	9.5	8
0	35199	9.5	5
0	35200	9.5	3
0	35201	9.5	5
0	35202	9.5	3
0	35203	9.5	1
0	35204	9.5	1
0	35208	9.5	3
0	35209	9.5	5
0	35210	9.5	3
0	35211	9.5	5
0	35212	9.5	8
0	35213	9.5	5
0	35214	9.5	3
0	35215	9.5	5
0	35216	9.5	3
0	35217	9.5	1
0	35218	9.5	1
0	35453	9.55	3
0	35454	9.55	5
0	35455	9.55	3
0	35456	9.55	5
0	35457	9.55	8
0	35458	9.55	5
0	35459	9.55	3
0	35460	9.55	5
0	35461	9.55	3
0	35462	9.55	1
0	35463	9.55	1
0	35552	9.6	3
0	35553	9.6	5
0	35554	9.6	3
0	35555	9.6	5
0	35556	9.6	8
0	35557	9.6	5
0	35558	9.6	3
0	35559	9.6	5
0	35560	9.6	3
0	35561	9.6	1
0	35562	9.6	1
0	35566	9.6	3
0	35567	9.6	5
0	35568	9.6	3
0	35569	9.6	5
0	35570	9.6	8
0	35571	9.6	5
0	35572	9.6	3
0	35573	9.6	5
0	35574	9.6	3
0	35575	9.6	1
0	35576	9.6	1
0	35733	9.65	3
0	35734	9.65	5
0	35735	9.65	3
0	35736	9.65	5
0	35737	9.65	8
0	35738	9.65	5
0	35739	9.65	3
0	35740	9.65	5
0	35741	9.65	3
0	35742	9.65	1
0	35743	9.65	1
0	35855	9.7	3
0	35856	9.7	5
0	35857	9.7	3
0	35858	9.7	5
0	35859	9.7	8
0	35860	9.7	5
0	35861	9.7	3
0	35862	9.7	5
0	35863	9.7	3
0	35864	9.7	1
0	35865	9.7	1
0	35869	9.7	3
0	35870	9.7	5
0	35871	9.7	3
0	35872	9.7	5
0	35873	9.7	8
0	35874	9.7	5
0	35875	9.7	3
0	35876	9.7	5
0	35877	9.7	3
0	35878	9.7	1
0	35879	9.7	1
0	36013	9.75	3
0	36014	9.75	5
0	36015	9.75	3
0	36016	9.75	5
0	36017	9.75	8
0	36018	9.75	5
0	36019	9.75	3
0	36020	9.75	5
0	36021	9.75	3
0	36022	9.75	1
0	36023	9.75	1
0	36112	9.8	3
0	36113	9.8	5
0	36114	9.8	3
0	36115	9.8	5
0	36116	9.8	8
0	36117	9.8	5
0	36118	9.8	3
0	36119	9.8	5
0	36120	9.8	3
0	36121	9.8	1
0	36122	9.8	1
0	36126	9.8	3
0	36127	9.8	5
0	36128	9.8	3
0	36129	9.8	5
0	36130	9.8	8
0	36131	9.8	5
0	36132	9.8	3
0	36133	9.8	5
0	36134	9.8	3
0	36135	9.8	1
0	36136	9.8	1
0	36287	9.85	3
0	36288	9.85	5
0	36289	9.85	3
0	36290	9.85	5
0	36291	9.85	8
0	36292	9.85	5
0	36293	9.85	3
0	36294	9.85	5
0	36295	9.85	3
0	36296	9.85	1
0	36297	9.85	1
0	36386	9.9	3
0	36387	9.9	5
0	36388	9.9	3
0	36389	9.9	5
0	36390	9.9	8
0	36391	9.9	5
0	36392	9.9	3
0	36393	9.9	5
0	36394	9.9	3
0	36395	9.9	1
0	36396	9.9	1
0	36400	9.9	3
0	36401	9.9	5
0	36402	9.9	3
0	36403	9.9	5
0	36404	9.9	8
0	36405	9.9	5
0	36406	9.9	3
0	36407	9.9	5
0	36408	9.9	3
0	36409	9.9	1
0	36410	9.9	1
0	36709	9.95	3
0	36710	9.95	5
0	36711	9.95	3
0	36712	9.95	5
0	36713	9.95	8
0	36714	9.95	5
0	36715	9.95	3
0	36716	9.95	5
0	36717	9.95	3
0	36718	9.95	1
0	36719	9.95	1
0	36842	10	3
0	36843	10	5
0	36844	10	3
0	36845	10	5
0	36846	10	8
0	36847	10	5
0	36848	10	3
0	36849	10	5
0	36850	10	3
0	36851	10	1
0	36852	10	1
0	36856	10	3
0	36857	10	5
0	36858	10	3
0	36859	10	5
0	36860	10	8
0	36861	10	5
0	36862	10	3
0	36863	10	5
0	36864	10	3
0	36865	10	1
0	36866	10	1
0	37115	10.05	3
0	37116	10.05	5
0	37117	10.05	3
0	37118	10.05	5
0	37119	10.05	8
0	37120	10.05	5
0	37121	10.05	3
0	37122	10.05	5
0	37123	10.05	3
0	37124	10.05	1
0	37125	10.05	1
0	37334	10.1	3
0	37335	10.1	5
0	37336	10.1	3
0	37337	10.1	5
0	37338	10.1	8
0	37339	10.1	5
0	37340	10.1	3
0	37341	10.1	5
0	37342	10.1	3
0	37343	10.1	1
0	37344	10.1	1
0	37348	10.1	3
0	37349	10.1	5
0	37350	10.1	3
0	37351	10.1	5
0	37352	10.1	8
0	37353	10.1	5
0	37354	10.1	3
0	37355	10.1	5
0	37356	10.1	3
0	37357	10.1	1
0	37358	10.1	1
0	37482	10.15	3
0	37483	10.15	5
0	37484	10.15	3
0	37485	10.15	5
0	37486	10.15	8
0	37487	10.15	5
0	37488	10.15	3
0	37489	10.15	5
0	37490	10.15	3
0	37491	10.15	1
0	37492	10.15	1
0	37690	10.2	3
0	37691	10.2	5
0	37692	10.2	3
0	37693	10.2	5
0	37694	10.2	8
0	37695	10.2	5
0	37696	10.2	3
0	37697	10.2	5
0	37698	10.2	3
0	37699	10.2	1
0	37700	10.2	1
0	37704	10.2	3
0	37705	10.2	5
0	37706	10.2	3
0	37707	10.2	5
0	37708	10.2	8
0	37709	10.2	5
0	37710	10.2	3
0	37711	10.2	5
0	37712	10.2	3
0	37713	10.2	1
0	37714	10.2	1
0	37894	10.25	3
0	37895	10.25	5
0	37896	10.25	3
0	37897	10.25	5
0	37898	10.25	8
0	37899	10.25	5
0	37900	10.25	3
0	37901	10.25	5
0	37902	10.25	3
0	37903	10.25	1
0	37904	10.25	1
0	38037	10.3	3
0	38038	10.3	5
0	38039	10.3	3
0	38040	10.3	5
0	38041	10.3	8
0	38042	10.3	5
0	38043	10.3	3
0	38044	10.3	5
0	38045	10.3	3
0	38046	10.3	1
0	38047	10.3	1
0	38051	10.3	3
0	38052	10.3	5
0	38053	10.3	3
0	38054	10.3	5
0	38055	10.3	8
0	38056	10.3	5
0	38057	10.3	3
0	38058	10.3	5
0	38059	10.3	3
0	38060	10.3	1
0	38061	10.3	1
0	38172	10.35	3
0	38173	10.35	5
0	38174	10.35	3
0	38175	10.35	5
0	38176	10.35	8
0	38177	10.35	5
0	38178	10.35	3
0	38179	10.35	5
0	38180	10.35	3
0	38181	10.35	1
0	38182	10.35	1
0	38311	10.4	3
0	38312	10.4	5
0	38313	10.4	3
0	38314	10.4	5
0	38315	10.4	8
0	38316	10.4	5
0	38317	10.4	3
0	38318	10.4	5
0	38319	10.4	3
0	38320	10.4	1
0	38321	10.4	1
0	38325	10.4	3
0	38326	10.4	5
0	38327	10.4	3
0	38328	10.4	5
0	38329	10.4	8
0	38330	10.4	5
0	38331	10.4	3
0	38332	10.4	5
0	38333	10.4	3
0	38334	10.4	1
0	38335	10.4	1
0	38509	10.45	3
0	38510	10.45	5
0	38511	10.45	3
0	38512	10.45	5
0	38513	10.45	8
0	38514	10.45	5
0	38515	10.45	3
0	38516	10.45	5
0	38517	10.45	3
0	38518	10.45	1
0	38519	10.45	1
0	38837	10.5	3
0	38838	10.5	5
0	38839	10.5	3
0	38840	10.5	5
0	38841	10.5	8
0	38842	10.5	5
0	38843	10.5	3
0	38844	10.5	5
0	38845	10.5	3
0	38846	10.5	1
0	38847	10.5	1
0	38851	10.5	3
0	38852	10.5	5
0	38853	10.5	3
0	38854	10.5	5
0	38855	10.5	8
0	38856	10.5	5
0	38857	10.5	3
0	38858	10.5	5
0	38859	10.5	3
0	38860	10.5	1
0	38861	10.5	1
0	39120	10.55	3
0	39121	10.55	5
0	39122	10.55	3
0	39123	10.55	5
0	39124	10.55	8
0	39125	10.55	5
0	39126	10.55	3
0	39127	10.55	5
0	39128	10.55	3
0	39129	10.55	1
0	39130	10.55	1
0	39414	10.6	3
0	39415	10.6	5
0	39416	10.6	3
0	39417	10.6	5
0	39418	10.6	8
0	39419	10.6	5
0	39420	10.6	3
0	39421	10.6	5
0	39422	10.6	3
0	39423	10.6	1
0	39424	10.6	1
0	39428	10.6	3
0	39429	10.6	5
0	39430	10.6	3
0	39431	10.6	5
0	39432	10.6	8
0	39433	10.6	5
0	39434	10.6	3
0	39435	10.6	5
0	39436	10.6	3
0	39437	10.6	1
0	39438	10.6	1
0	39623	10.65	3
0	39624	10.65	5
0	39625	10.65	3
0	39626	10.65	5
0	39627	10.65	8
0	39628	10.65	5
0	39629	10.65	3
0	39630	10.65	5
0	39631	10.65	3
0	39632	10.65	1
0	39633	10.65	1
0	39722	10.7	3
0	39723	10.7	5
0	39724	10.7	3
0	39725	10.7	5
0	39726	10.7	8
0	39727	10.7	5
0	39728	10.7	3
0	39729	10.7	5
0	39730	10.7	3
0	39731	10.7	1
0	39732	10.7	1
0	39736	10.7	3
0	39737	10.7	5
0	39738	10.7	3
0	39739	10.7	5
0	39740	10.7	8
0	39741	10.7	5
0	39742	10.7	3
0	39743	10.7	5
0	39744	10.7	3
0	39745	10.7	1
0	39746	10.7	1
0	39958	10.75	3
0	39959	10.75	5
0	39960	10.75	3
0	39961	10.75	5
0	39962	10.75	8
0	39963	10.75	5
0	39964	10.75	3
0	39965	10.75	5
0	39966	10.75	3
0	39967	10.75	1
0	39968	10.75	1
0	40127	10.8	3
0	40128	10.8	5
0	40129	10.8	3
0	40130	10.8	5
0	40131	10.8	8
0	40132	10.8	5
0	40133	10.8	3
0	40134	10.8	5
0	40135	10.8	3
0	40136	10.8	1
0	40137	10.8	1
0	40141	10.8	3
0	40142	10.8	5
0	40143	10.8	3
0	40144	10.8	5
0	40145	10.8	8
0	40146	10.8	5
0	40147	10.8	3
0	40148	10.8	5
0	40149	10.8	3
0	40150	10.8	1
0	40151	10.8	1
0	40345	10.85	3
0	40346	10.85	5
0	40347	10.85	3
0	40348	10.85	5
0	40349	10.85	8
0	40350	10.85	5
0	40351	10.85	3
0	40352	10.85	5
0	40353	10.85	3
0	40354	10.85	1
0	40355	10.85	1
0	40467	10.9	3
0	40468	10.9	5
0	40469	10.9	3
0	40470	10.9	5
0	40471	10.9	8
0	40472	10.9	5
0	40473	10.9	3
0	40474	10.9	5
0	40475	10.9	3
0	40476	10.9	1
0	40477	10.9	1
0	40481	10.9	3
0	40482	10.9	5
0	40483	10.9	3
0	40484	10.9	5
0	40485	10.9	8
0	40486	10.9	5
0	40487	10.9	3
0	40488	10.9	5
0	40489	10.9	3
0	40490	10.9	1
0	40491	10.9	1
0	40625	10.95	3
0	40626	10.95	5
0	40627	10.95	3
0	40628	10.95	5
0	40629	10.95	8
0	40630	10.95	5
0	40631	10.95	3
0	40632	10.95	5
0	40633	10.95	3
0	40634	10.95	1
0	40635	10.95	1
0	40770	11	3
0	40771	11	5
0	40772	11	3
0	40773	11	5
0	40774	11	8
0	40775	11	5
0	40776	11	3
0	40777	11	5
0	40778	11	3
0	40779	11	1
0	40780	11	1
0	40784	11	3
0	40785	11	5
0	40786	11	3
0	40787	11	5
0	40788	11	8
0	40789	11	5
0	40790	11	3
0	40791	11	5
0	40792	11	3
0	40793	11	1
0	40794	11	1
0	41078	11.05	3
0	41079	11.05	5
0	41080	11.05	3
0	41081	11.05	5
0	41082	11.05	8
0	41083	11.05	5
0	41084	11.05	3
0	41085	11.05	5
0	41086	11.05	3
0	41087	11.05	1
0	41088	11.05	1
0	41214	11.1	3
0	41215	11.1	5
0	41216	11.1	3
0	41217	11.1	5
0	41218	11.1	8
0	41219	11.1	5
0	41220	11.1	3
0	41221	11.1	5
0	41222	11.1	3
0	41223	11.1	1
0	41224	11.1	1
0	41228	11.1	3
0	41229	11.1	5
0	41230	11.1	3
0	41231	11.1	5
0	41232	11.1	8
0	41233	11.1	5
0	41234	11.1	3
0	41235	11.1	5
0	41236	11.1	3
0	41237	11.1	1
0	41238	11.1	1
0	41520	11.15	3
0	41521	11.15	5
0	41522	11.15	3
0	41523	11.15	5
0	41524	11.15	8
0	41525	11.15	5
0	41526	11.15	3
0	41527	11.15	5
0	41528	11.15	3
0	41529	11.15	1
0	41530	11.15	1
0	41688	11.2	3
0	41689	11.2	5
0	41690	11.2	3
0	41691	11.2	5
0	41692	11.2	8
0	41693	11.2	5
0	41694	11.2	3
0	41695	11.2	5
0	41696	11.2	3
0	41697	11.2	1
0	41698	11.2	1
0	41702	11.2	3
0	41703	11.2	5
0	41704	11.2	3
0	41705	11.2	5
0	41706	11.2	8
0	41707	11.2	5
0	41708	11.2	3
0	41709	11.2	5
0	41710	11.2	3
0	41711	11.2	1
0	41712	11.2	1
0	41840	11.25	3
0	41841	11.25	5
0	41842	11.25	3
0	41843	11.25	5
0	41844	11.25	8
0	41845	11.25	5
0	41846	11.25	3
0	41847	11.25	5
0	41848	11.25	3
0	41849	11.25	1
0	41850	11.25	1
0	42024	11.3	3
0	42025	11.3	5
0	42026	11.3	3
0	42027	11.3	5
0	42028	11.3	8
0	42029	11.3	5
0	42030	11.3	3
0	42031	11.3	5
0	42032	11.3	3
0	42033	11.3	1
0	42034	11.3	1
0	42038	11.3	3
0	42039	11.3	5
0	42040	11.3	3
0	42041	11.3	5
0	42042	11.3	8
0	42043	11.3	5
0	42044	11.3	3
0	42045	11.3	5
0	42046	11.3	3
0	42047	11.3	1
0	42048	11.3	1
0	42205	11.35	3
0	42206	11.35	5
0	42207	11.35	3
0	42208	11.35	5
0	42209	11.35	8
0	42210	11.35	5
0	42211	11.35	3
0	42212	11.35	5
0	42213	11.35	3
0	42214	11.35	1
0	42215	11.35	1
0	42348	11.4	3
0	42349	11.4	5
0	42350	11.4	3
0	42351	11.4	5
0	42352	11.4	8
0	42353	11.4	5
0	42354	11.4	3
0	42355	11.4	5
0	42356	11.4	3
0	42357	11.4	1
0	42358	11.4	1
0	42362	11.4	3
0	42363	11.4	5
0	42364	11.4	3
0	42365	11.4	5
0	42366	11.4	8
0	42367	11.4	5
0	42368	11.4	3
0	42369	11.4	5
0	42370	11.4	3
0	42371	11.4	1
0	42372	11.4	1
0	42506	11.45	3
0	42507	11.45	5
0	42508	11.45	3
0	42509	11.45	5
0	42510	11.45	8
0	42511	11.45	5
0	42512	11.45	3
0	42513	11.45	5
0	42514	11.45	3
0	42515	11.45	1
0	42516	11.45	1
0	42628	11.5	3
0	42629	11.5	5
0	42630	11.5	3
0	42631	11.5	5
0	42632	11.5	8
0	42633	11.5	5
0	42634	11.5	3
0	42635	11.5	5
0	42636	11.5	3
0	42637	11.5	1
0	42638	11.5	1
0	42642	11.5	3
0	42643	11.5	5
0	42644	11.5	3
0	42645	11.5	5
0	42646	11.5	8
0	42647	11.5	5
0	42648	11.5	3
0	42649	11.5	5
0	42650	11.5	3
0	42651	11.5	1
0	42652	11.5	1
0	42791	11.55	3
0	42792	11.55	5
0	42793	11.55	3
0	42794	11.55	5
0	42795	11.55	8
0	42796	11.55	5
0	42797	11.55	3
0	42798	11.55	5
0	42799	11.55	3
0	42800	11.55	1
0	42801	11.55	1
0	43088	11.6	3
0	43089	11.6	5
0	43090	11.6	3
0	43091	11.6	5
0	43092	11.6	8
0	43093	11.6	5
0	43094	11.6	3
0	43095	11.6	5
0	43096	11.6	3
0	43097	11.6	1
0	43098	11.6	1
0	43102	11.6	3
0	43103	11.6	5
0	43104	11.6	3
0	43105	11.6	5
0	43106	11.6	8
0	43107	11.6	5
0	43108	11.6	3
0	43109	11.6	5
0	43110	11.6	3
0	43111	11.6	1
0	43112	11.6	1
0	43272	11.65	3
0	43273	11.65	5
0	43274	11.65	3
0	43275	11.65	5
0	43276	11.65	8
0	43277	11.65	5
0	43278	11.65	3
0	43279	11.65	5
0	43280	11.65	3
0	43281	11.65	1
0	43282	11.65	1
0	43510	11.7	3
0	43511	11.7	5
0	43512	11.7	3
0	43513	11.7	5
0	43514	11.7	8
0	43515	11.7	5
0	43516	11.7	3
0	43517	11.7	5
0	43518	11.7	3
0	43519	11.7	1
0	43520	11.7	1
0	43524	11.7	3
0	43525	11.7	5
0	43526	11.7	3
0	43527	11.7	5
0	43528	11.7	8
0	43529	11.7	5
0	43530	11.7	3
0	43531	11.7	5
0	43532	11.7	3
0	43533	11.7	1
0	43534	11.7	1
0	43708	11.75	3
0	43709	11.75	5
0	43710	11.75	3
0	43711	11.75	5
0	43712	11.75	8
0	43713	11.75	5
0	43714	11.75	3
0	43715	11.75	5
0	43716	11.75	3
0	43717	11.75	1
0	43718	11.75	1
0	43807	11.8	3
0	43808	11.8	5
0	43809	11.8	3
0	43810	11.8	5
0	43811	11.8	8
0	43812	11.8	5
0	43813	11.8	3
0	43814	11.8	5
0	43815	11.8	3
0	43816	11.8	1
0	43817	11.8	1
0	43821	11.8	3
0	43822	11.8	5
0	43823	11.8	3
0	43824	11.8	5
0	43825	11.8	8
0	43826	11.8	5
0	43827	11.8	3
0	43828	11.8	5
0	43829	11.8	3
0	43830	11.8	1
0	43831	11.8	1
0	44062	11.85	3
0	44063	11.85	5
0	44064	11.85	3
0	44065	11.85	5
0	44066	11.85	8
0	44067	11.85	5
0	44068	11.85	3
0	44069	11.85	5
0	44070	11.85	3
0	44071	11.85	1
0	44072	11.85	1
0	44180	11.9	3
0	44181	11.9	5
0	44182	11.9	3
0	44183	11.9	5
0	44184	11.9	8
0	44185	11.9	5
0	44186	11.9	3
0	44187	11.9	5
0	44188	11.9	3
0	44189	11.9	1
0	44190	11.9	1
0	44194	11.9	3
0	44195	11.9	5
0	44196	11.9	3
0	44197	11.9	5
0	44198	11.9	8
0	44199	11.9	5
0	44200	11.9	3
0	44201	11.9	5
0	44202	11.9	3
0	44203	11.9	1
0	44204	11.9	1
0	44338	11.95	3
0	44339	11.95	5
0	44340	11.95	3
0	44341	11.95	5
0	44342	11.95	8
0	44343	11.95	5
0	44344	11.95	3
0	44345	11.95	5
0	44346	11.95	3
0	44347	11.95	1
0	44348	11.95	1
0	44512	12	3
0	44513	12	5
0	44514	12	3
0	44515	12	5
0	44516	12	8
0	44517	12	5
0	44518	12	3
0	44519	12	5
0	44520	12	3
0	44521	12	1
0	44522	12	1
0	44526	12	3
0	44527	12	5
0	44528	12	3
0	44529	12	5
0	44530	12	8
0	44531	12	5
0	44532	12	3
0	44533	12	5
0	44534	12	3
0	44535	12	1
0	44536	12	1
0	44733	12.05	3
0	44734	12.05	5
0	44735	12.05	3
0	44736	12.05	5
0	44737	12.05	8
0	44738	12.05	5
0	44739	12.05	3
0	44740	12.05	5
0	44741	12.05	3
0	44742	12.05	1
0	44743	12.05	1
0	44883	12.1	3
0	44884	12.1	5
0	44885	12.1	3
0	44886	12.1	5
0	44887	12.1	8
0	44888	12.1	5
0	44889	12.1	3
0	44890	12.1	5
0	44891	12.1	3
0	44892	12.1	1
0	44893	12.1	1
0	44897	12.1	3
0	44898	12.1	5
0	44899	12.1	3
0	44900	12.1	5
0	44901	12.1	8
0	44902	12.1	5
0	44903	12.1	3
0	44904	12.1	5
0	44905	12.1	3
0	44906	12.1	1
0	44907	12.1	1
0	45212	12.15	3
0	45213	12.15	5
0	45214	12.15	3
0	45215	12.15	5
0	45216	12.15	8
0	45217	12.15	5
0	45218	12.15	3
0	45219	12.15	5
0	45220	12.15	3
0	45221	12.15	1
0	45222	12.15	1
0	45365	12.2	3
0	45366	12.2	5
0	45367	12.2	3
0	45368	12.2	5
0	45369	12.2	8
0	45370	12.2	5
0	45371	12.2	3
0	45372	12.2	5
0	45373	12.2	3
0	45374	12.2	1
0	45375	12.2	1
0	45379	12.2	3
0	45380	12.2	5
0	45381	12.2	3
0	45382	12.2	5
0	45383	12.2	8
0	45384	12.2	5
0	45385	12.2	3
0	45386	12.2	5
0	45387	12.2	3
0	45388	12.2	1
0	45389	12.2	1
0	45703	12.25	3
0	45704	12.25	5
0	45705	12.25	3
0	45706	12.25	5
0	45707	12.25	8
0	45708	12.25	5
0	45709	12.25	3
0	45710	12.25	5
0	45711	12.25	3
0	45712	12.25	1
0	45713	12.25	1
0	45874	12.3	3
0	45875	12.3	5
0	45876	12.3	3
0	45877	12.3	5
0	45878	12.3	8
0	45879	12.3	5
0	45880	12.3	3
0	45881	12.3	5
0	45882	12.3	3
0	45883	12.3	1
0	45884	12.3	1
0	45888	12.3	3
0	45889	12.3	5
0	45890	12.3	3
0	45891	12.3	5
0	45892	12.3	8
0	45893	12.3	5
0	45894	12.3	3
0	45895	12.3	5
0	45896	12.3	3
0	45897	12.3	1
0	45898	12.3	1
0	46032	12.35	3
0	46033	12.35	5
0	46034	12.35	3
0	46035	12.35	5
0	46036	12.35	8
0	46037	12.35	5
0	46038	12.35	3
0	46039	12.35	5
0	46040	12.35	3
0	46041	12.35	1
0	46042	12.35	1
0	46264	12.4	3
0	46265	12.4	5
0	46266	12.4	3
0	46267	12.4	5
0	46268	12.4	8
0	46269	12.4	5
0	46270	12.4	3
0	46271	12.4	5
0	46272	12.4	3
0	46273	12.4	1
0	46274	12.4	1
0	46278	12.4	3
0	46279	12.4	5
0	46280	12.4	3
0	46281	12.4	5
0	46282	12.4	8
0	46283	12.4	5
0	46284	12.4	3
0	46285	12.4	5
0	46286	12.4	3
0	46287	12.4	1
0	46288	12.4	1
0	46426	12.45	3
0	46427	12.45	5
0	46428	12.45	3
0	46429	12.45	5
0	46430	12.45	8
0	46431	12.45	5
0	46432	12.45	3
0	46433	12.45	5
0	46434	12.45	3
0	46435	12.45	1
0	46436	12.45	1
0	46530	12.5	3
0	46531	12.5	5
0	46532	12.5	3
0	46533	12.5	5
0	46534	12.5	8
0	46535	12.5	5
0	46536	12.5	3
0	46537	12.5	5
0	46538	12.5	3
0	46539	12.5	1
0	46540	12.5	1
0	46544	12.5	3
0	46545	12.5	5
0	46546	12.5	3
0	46547	12.5	5
0	46548	12.5	8
0	46549	12.5	5
0	46550	12.5	3
0	46551	12.5	5
0	46552	12.5	3
0	46553	12.5	1
0	46554	12.5	1
0	46665	12.55	3
0	46666	12.55	5
0	46667	12.55	3
0	46668	12.55	5
0	46669	12.55	8
0	46670	12.55	5
0	46671	12.55	3
0	46672	12.55	5
0	46673	12.55	3
0	46674	12.55	1
0	46675	12.55	1
0	46786	12.6	3
0	46787	12.6	5
0	46788	12.6	3
0	46789	12.6	5
0	46790	12.6	8
0	46791	12.6	5
0	46792	12.6	3
0	46793	12.6	5
0	46794	12.6	3
0	46795	12.6	1
0	46796	12.6	1
0	46800	12.6	3
0	46801	12.6	5
0	46802	12.6	3
0	46803	12.6	5
0	46804	12.6	8
0	46805	12.6	5
0	46806	12.6	3
0	46807	12.6	5
0	46808	12.6	3
0	46809	12.6	1
0	46810	12.6	1
0	46938	12.65	3
0	46939	12.65	5
0	46940	12.65	3
0	46941	12.65	5
0	46942	12.65	8
0	46943	12.65	5
0	46944	12.65	3
0	46945	12.65	5
0	46946	12.65	3
0	46947	12.65	1
0	46948	12.65	1
0	47175	12.7	3
0	47176	12.7	5
0	47177	12.7	3
0	47178	12.7	5
0	47179	12.7	8
0	47180	12.7	5
0	47181	12.7	3
0	47182	12.7	5
0	47183	12.7	3
0	47184	12.7	1
0	47185	12.7	1
0	47189	12.7	3
0	47190	12.7	5
0	47191	12.7	3
0	47192	12.7	5
0	47193	12.7	8
0	47194	12.7	5
0	47195	12.7	3
0	47196	12.7	5
0	47197	12.7	3
0	47198	12.7	1
0	47199	12.7	1
0	47379	12.75	3
0	47380	12.75	5
0	47381	12.75	3
0	47382	12.75	5
0	47383	12.75	8
0	47384	12.75	5
0	47385	12.75	3
0	47386	12.75	5
0	47387	12.75	3
0	47388	12.75	1
0	47389	12.75	1
0	47604	12.8	3
0	47605	12.8	5
0	47606	12.8	3
0	47607	12.8	5
0	47608	12.8	8
0	47609	12.8	5
0	47610	12.8	3
0	47611	12.8	5
0	47612	12.8	3
0	47613	12.8	1
0	47614	12.8	1
0	47618	12.8	3
0	47619	12.8	5
0	47620	12.8	3
0	47621	12.8	5
0	47622	12.8	8
0	47623	12.8	5
0	47624	12.8	3
0	47625	12.8	5
0	47626	12.8	3
0	47627	12.8	1
0	47628	12.8	1
0	47845	12.85	3
0	47846	12.85	5
0	47847	12.85	3
0	47848	12.85	5
0	47849	12.85	8
0	47850	12.85	5
0	47851	12.85	3
0	47852	12.85	5
0	47853	12.85	3
0	47854	12.85	1
0	47855	12.85	1
0	48011	12.9	3
0	48012	12.9	5
0	48013	12.9	3
0	48014	12.9	5
0	48015	12.9	8
0	48016	12.9	5
0	48017	12.9	3
0	48018	12.9	5
0	48019	12.9	3
0	48020	12.9	1
0	48021	12.9	1
0	48025	12.9	3
0	48026	12.9	5
0	48027	12.9	3
0	48028	12.9	5
0	48029	12.9	8
0	48030	12.9	5
0	48031	12.9	3
0	48032	12.9	5
0	48033	12.9	3
0	48034	12.9	1
0	48035	12.9	1
0	48289	12.95	3
0	48290	12.95	5
0	48291	12.95	3
0	48292	12.95	5
0	48293	12.95	8
0	48294	12.95	5
0	48295	12.95	3
0	48296	12.95	5
0	48297	12.95	3
0	48298	12.95	1
0	48299	12.95	1
0	48463	13	3
0	48464	13	5
0	48465	13	3
0	48466	13	5
0	48467	13	8
0	48468	13	5
0	48469	13	3
0	48470	13	5
0	48471	13	3
0	48472	13	1
0	48473	13	1
0	48477	13	3
0	48478	13	5
0	48479	13	3
0	48480	13	5
0	48481	13	8
0	48482	13	5
0	48483	13	3
0	48484	13	5
0	48485	13	3
0	48486	13	1
0	48487	13	1
0	48598	13.05	3
0	48599	13.05	5
0	48600	13.05	3
0	48601	13.05	5
0	48602	13.05	8
0	48603	13.05	5
0	48604	13.05	3
0	48605	13.05	5
0	48606	13.05	3
0	48607	13.05	1
0	48608	13.05	1
0	48708	13.1	3
0	48709	13.1	5
0	48710	13.1	3
0	48711	13.1	5
0	48712	13.1	8
0	48713	13.1	5
0	48714	13.1	3
0	48715	13.1	5
0	48716	13.1	3
0	48717	13.1	1
0	48718	13.1	1
0	48722	13.1	3
0	48723	13.1	5
0	48724	13.1	3
0	48725	13.1	5
0	48726	13.1	8
0	48727	13.1	5
0	48728	13.1	3
0	48729	13.1	5
0	48730	13.1	3
0	48731	13.1	1
0	48732	13.1	1
0	48884	13.15	3
0	48885	13.15	5
0	48886	13.15	3
0	48887	13.15	5
0	48888	13.15	8
0	48889	13.15	5
0	48890	13.15	3
0	48891	13.15	5
0	48892	13.15	3
0	48893	13.15	1
0	48894	13.15	1
0	49005	13.2	3
0	49006	13.2	5
0	49007	13.2	3
0	49008	13.2	5
0	49009	13.2	8
0	49010	13.2	5
0	49011	13.2	3
0	49012	13.2	5
0	49013	13.2	3
0	49014	13.2	1
0	49015	13.2	1
0	49019	13.2	3
0	49020	13.2	5
0	49021	13.2	3
0	49022	13.2	5
0	49023	13.2	8
0	49024	13.2	5
0	49025	13.2	3
0	49026	13.2	5
0	49027	13.2	3
0	49028	13.2	1
0	49029	13.2	1
0	49275	13.25	3
0	49276	13.25	5
0	49277	13.25	3
0	49278	13.25	5
0	49279	13.25	8
0	49280	13.25	5
0	49281	13.25	3
0	49282	13.25	5
0	49283	13.25	3
0	49284	13.25	1
0	49285	13.25	1
0	49466	13.3	3
0	49467	13.3	5
0	49468	13.3	3
0	49469	13.3	5
0	49470	13.3	8
0	49471	13.3	5
0	49472	13.3	3
0	49473	13.3	5
0	49474	13.3	3
0	49475	13.3	1
0	49476	13.3	1
0	49480	13.3	3
0	49481	13.3	5
0	49482	13.3	3
0	49483	13.3	5
0	49484	13.3	8
0	49485	13.3	5
0	49486	13.3	3
0	49487	13.3	5
0	49488	13.3	3
0	49489	13.3	1
0	49490	13.3	1
0	49794	13.35	3
0	49795	13.35	5
0	49796	13.35	3
0	49797	13.35	5
0	49798	13.35	8
0	49799	13.35	5
0	49800	13.35	3
0	49801	13.35	5
0	49802	13.35	3
0	49803	13.35	1
0	49804	13.35	1
0	49967	13.4	3
0	49968	13.4	5
0	49969	13.4	3
0	49970	13.4	5
0	49971	13.4	8
0	49972	13.4	5
0	49973	13.4	3
0	49974	13.4	5
0	49975	13.4	3
0	49976	13.4	1
0	49977	13.4	1
0	49981	13.4	3
0	49982	13.4	5
0	49983	13.4	3
0	49984	13.4	5
0	49985	13.4	8
0	49986	13.4	5
0	49987	13.4	3
0	49988	13.4	5
0	49989	13.4	3
0	49990	13.4	1
0	49991	13.4	1
0	50184	13.45	3
0	50185	13.45	5
0	50186	13.45	3
0	50187	13.45	5
0	50188	13.45	8
0	50189	13.45	5
0	50190	13.45	3
0	50191	13.45	5
0	50192	13.45	3
0	50193	13.45	1
0	50194	13.45	1
0	50437	13.5	3
0	50438	13.5	5
0	50439	13.5	3
0	50440	13.5	5
0	50441	13.5	8
0	50442	13.5	5
0	50443	13.5	3
0	50444	13.5	5
0	50445	13.5	3
0	50446	13.5	1
0	50447	13.5	1
0	50451	13.5	3
0	50452	13.5	5
0	50453	13.5	3
0	50454	13.5	5
0	50455	13.5	8
0	50456	13.5	5
0	50457	13.5	3
0	50458	13.5	5
0	50459	13.5	3
0	50460	13.5	1
0	50461	13.5	1
0	50595	13.55	3
0	50596	13.55	5
0	50597	13.55	3
0	50598	13.55	5
0	50599	13.55	8
0	50600	13.55	5
0	50601	13.55	3
0	50602	13.55	5
0	50603	13.55	3
0	50604	13.55	1
0	50605	13.55	1
0	50738	13.6	3
0	50739	13.6	5
0	50740	13.6	3
0	50741	13.6	5
0	50742	13.6	8
0	50743	13.6	5
0	50744	13.6	3
0	50745	13.6	5
0	50746	13.6	3
0	50747	13.6	1
0	50748	13.6	1
0	50752	13.6	3
0	50753	13.6	5
0	50754	13.6	3
0	50755	13.6	5
0	50756	13.6	8
0	50757	13.6	5
0	50758	13.6	3
0	50759	13.6	5
0	50760	13.6	3
0	50761	13.6	1
0	50762	13.6	1
0	50873	13.65	3
0	50874	13.65	5
0	50875	13.65	3
0	50876	13.65	5
0	50877	13.65	8
0	50878	13.65	5
0	50879	13.65	3
0	50880	13.65	5
0	50881	13.65	3
0	50882	13.65	1
0	50883	13.65	1
0	51041	13.7	3
0	51042	13.7	5
0	51043	13.7	3
0	51044	13.7	5
0	51045	13.7	8
0	51046	13.7	5
0	51047	13.7	3
0	51048	13.7	5
0	51049	13.7	3
0	51050	13.7	1
0	51051	13.7	1
0	51055	13.7	3
0	51056	13.7	5
0	51057	13.7	3
0	51058	13.7	5
0	51059	13.7	8
0	51060	13.7	5
0	51061	13.7	3
0	51062	13.7	5
0	51063	13.7	3
0	51064	13.7	1
0	51065	13.7	1
0	51239	13.75	3
0	51240	13.75	5
0	51241	13.75	3
0	51242	13.75	5
0	51243	13.75	8
0	51244	13.75	5
0	51245	13.75	3
0	51246	13.75	5
0	51247	13.75	3
0	51248	13.75	1
0	51249	13.75	1
0	51458	13.8	3
0	51459	13.8	5
0	51460	13.8	3
0	51461	13.8	5
0	51462	13.8	8
0	51463	13.8	5
0	51464	13.8	3
0	51465	13.8	5
0	51466	13.8	3
0	51467	13.8	1
0	51468	13.8	1
0	51472	13.8	3
0	51473	13.8	5
0	51474	13.8	3
0	51475	13.8	5
0	51476	13.8	8
0	51477	13.8	5
0	51478	13.8	3
0	51479	13.8	5
0	51480	13.8	3
0	51481	13.8	1
0	51482	13.8	1
0	51667	13.85	3
0	51668	13.85	5
0	51669	13.85	3
0	51670	13.85	5
0	51671	13.85	8
0	51672	13.85	5
0	51673	13.85	3
0	51674	13.85	5
0	51675	13.85	3
0	51676	13.85	1
0	51677	13.85	1
0	51903	13.9	3
0	51904	13.9	5
0	51905	13.9	3
0	51906	13.9	5
0	51907	13.9	8
0	51908	13.9	5
0	51909	13.9	3
0	51910	13.9	5
0	51911	13.9	3
0	51912	13.9	1
0	51913	13.9	1
0	51917	13.9	3
0	51918	13.9	5
0	51919	13.9	3
0	51920	13.9	5
0	51921	13.9	8
0	51922	13.9	5
0	51923	13.9	3
0	51924	13.9	5
0	51925	13.9	3
0	51926	13.9	1
0	51927	13.9	1
0	52164	13.95	3
0	52165	13.95	5
0	52166	13.95	3
0	52167	13.95	5
0	52168	13.95	8
0	52169	13.95	5
0	52170	13.95	3
0	52171	13.95	5
0	52172	13.95	3
0	52173	13.95	1
0	52174	13.95	1
0	52310	14	3
0	52311	14	5
0	52312	14	3
0	52313	14	5
0	52314	14	8
0	52315	14	5
0	52316	14	3
0	52317	14	5
0	52318	14	3
0	52319	14	1
0	52320	14	1
0	52324	14	3
0	52325	14	5
0	52326	14	3
0	52327	14	5
0	52328	14	8
0	52329	14	5
0	52330	14	3
0	52331	14	5
0	52332	14	3
0	52333	14	1
0	52334	14	1
0	52571	14.05	3
0	52572	14.05	5
0	52573	14.05	3
0	52574	14.05	5
0	52575	14.05	8
0	52576	14.05	5
0	52577	14.05	3
0	52578	14.05	5
0	52579	14.05	3
0	52580	14.05	1
0	52581	14.05	1
0	52706	14.1	3
0	52707	14.1	5
0	52708	14.1	3
0	52709	14.1	5
0	52710	14.1	8
0	52711	14.1	5
0	52712	14.1	3
0	52713	14.1	5
0	52714	14.1	3
0	52715	14.1	1
0	52716	14.1	1
0	52720	14.1	3
0	52721	14.1	5
0	52722	14.1	3
0	52723	14.1	5
0	52724	14.1	8
0	52725	14.1	5
0	52726	14.1	3
0	52727	14.1	5
0	52728	14.1	3
0	52729	14.1	1
0	52730	14.1	1
0	52913	14.15	3
0	52914	14.15	5
0	52915	14.15	3
0	52916	14.15	5
0	52917	14.15	8
0	52918	14.15	5
0	52919	14.15	3
0	52920	14.15	5
0	52921	14.15	3
0	52922	14.15	1
0	52923	14.15	1
0	53039	14.2	3
0	53040	14.2	5
0	53041	14.2	3
0	53042	14.2	5
0	53043	14.2	8
0	53044	14.2	5
0	53045	14.2	3
0	53046	14.2	5
0	53047	14.2	3
0	53048	14.2	1
0	53049	14.2	1
0	53053	14.2	3
0	53054	14.2	5
0	53055	14.2	3
0	53056	14.2	5
0	53057	14.2	8
0	53058	14.2	5
0	53059	14.2	3
0	53060	14.2	5
0	53061	14.2	3
0	53062	14.2	1
0	53063	14.2	1
0	53220	14.25	3
0	53221	14.25	5
0	53222	14.25	3
0	53223	14.25	5
0	53224	14.25	8
0	53225	14.25	5
0	53226	14.25	3
0	53227	14.25	5
0	53228	14.25	3
0	53229	14.25	1
0	53230	14.25	1
0	53388	14.3	3
0	53389	14.3	5
0	53390	14.3	3
0	53391	14.3	5
0	53392	14.3	8
0	53393	14.3	5
0	53394	14.3	3
0	53395	14.3	5
0	53396	14.3	3
0	53397	14.3	1
0	53398	14.3	1
0	53402	14.3	3
0	53403	14.3	5
0	53404	14.3	3
0	53405	14.3	5
0	53406	14.3	8
0	53407	14.3	5
0	53408	14.3	3
0	53409	14.3	5
0	53410	14.3	3
0	53411	14.3	1
0	53412	14.3	1
0	53632	14.35	3
0	53633	14.35	5
0	53634	14.35	3
0	53635	14.35	5
0	53636	14.35	8
0	53637	14.35	5
0	53638	14.35	3
0	53639	14.35	5
0	53640	14.35	3
0	53641	14.35	1
0	53642	14.35	1
0	53817	14.4	3
0	53818	14.4	5
0	53819	14.4	3
0	53820	14.4	5
0	53821	14.4	8
0	53822	14.4	5
0	53823	14.4	3
0	53824	14.4	5
0	53825	14.4	3
0	53826	14.4	1
0	53827	14.4	1
0	53831	14.4	3
0	53832	14.4	5
0	53833	14.4	3
0	53834	14.4	5
0	53835	14.4	8
0	53836	14.4	5
0	53837	14.4	3
0	53838	14.4	5
0	53839	14.4	3
0	53840	14.4	1
0	53841	14.4	1
0	54147	14.45	3
0	54148	14.45	5
0	54149	14.45	3
0	54150	14.45	5
0	54151	14.45	8
0	54152	14.45	5
0	54153	14.45	3
0	54154	14.45	5
0	54155	14.45	3
0	54156	14.45	1
0	54157	14.45	1
0	54384	14.5	3
0	54385	14.5	5
0	54386	14.5	3
0	54387	14.5	5
0	54388	14.5	8
0	54389	14.5	5
0	54390	14.5	3
0	54391	14.5	5
0	54392	14.5	3
0	54393	14.5	1
0	54394	14.5	1
0	54398	14.5	3
0	54399	14.5	5
0	54400	14.5	3
0	54401	14.5	5
0	54402	14.5	8
0	54403	14.5	5
0	54404	14.5	3
0	54405	14.5	5
0	54406	14.5	3
0	54407	14.5	1
0	54408	14.5	1
0	54568	14.55	3
0	54569	14.55	5
0	54570	14.55	3
0	54571	14.55	5
0	54572	14.55	8
0	54573	14.55	5
0	54574	14.55	3
0	54575	14.55	5
0	54576	14.55	3
0	54577	14.55	1
0	54578	14.55	1
0	54824	14.6	3
0	54825	14.6	5
0	54826	14.6	3
0	54827	14.6	5
0	54828	14.6	8
0	54829	14.6	5
0	54830	14.6	3
0	54831	14.6	5
0	54832	14.6	3
0	54833	14.6	1
0	54834	14.6	1
0	54838	14.6	3
0	54839	14.6	5
0	54840	14.6	3
0	54841	14.6	5
0	54842	14.6	8
0	54843	14.6	5
0	54844	14.6	3
0	54845	14.6	5
0	54846	14.6	3
0	54847	14.6	1
0	54848	14.6	1
0	54964	14.65	3
0	54965	14.65	5
0	54966	14.65	3
0	54967	14.65	5
0	54968	14.65	8
0	54969	14.65	5
0	54970	14.65	3
0	54971	14.65	5
0	54972	14.65	3
0	54973	14.65	1
0	54974	14.65	1
0	55080	14.7	3
0	55081	14.7	5
0	55082	14.7	3
0	55083	14.7	5
0	55084	14.7	8
0	55085	14.7	5
0	55086	14.7	3
0	55087	14.7	5
0	55088	14.7	3
0	55089	14.7	1
0	55090	14.7	1
0	55094	14.7	3
0	55095	14.7	5
0	55096	14.7	3
0	55097	14.7	5
0	55098	14.7	8
0	55099	14.7	5
0	55100	14.7	3
0	55101	14.7	5
0	55102	14.7	3
0	55103	14.7	1
0	55104	14.7	1
0	55215	14.75	3
0	55216	14.75	5
0	55217	14.75	3
0	55218	14.75	5
0	55219	14.75	8
0	55220	14.75	5
0	55221	14.75	3
0	55222	14.75	5
0	55223	14.75	3
0	55224	14.75	1
0	55225	14.75	1
0	55360	14.8	3
0	55361	14.8	5
0	55362	14.8	3
0	55363	14.8	5
0	55364	14.8	8
0	55365	14.8	5
0	55366	14.8	3
0	55367	14.8	5
0	55368	14.8	3
0	55369	14.8	1
0	55370	14.8	1
0	55374	14.8	3
0	55375	14.8	5
0	55376	14.8	3
0	55377	14.8	5
0	55378	14.8	8
0	55379	14.8	5
0	55380	14.8	3
0	55381	14.8	5
0	55382	14.8	3
0	55383	14.8	1
0	55384	14.8	1
0	55546	14.85	3
0	55547	14.85	5
0	55548	14.85	3
0	55549	14.85	5
0	55550	14.85	8
0	55551	14.85	5
0	55552	14.85	3
0	55553	14.85	5
0	55554	14.85	3
0	55555	14.85	1
0	55556	14.85	1
0	55777	14.9	3
0	55778	14.9	5
0	55779	14.9	3
0	55780	14.9	5
0	55781	14.9	8
0	55782	14.9	5
0	55783	14.9	3
0	55784	14.9	5
0	55785	14.9	3
0	55786	14.9	1
0	55787	14.9	1
0	55791	14.9	3
0	55792	14.9	5
0	55793	14.9	3
0	55794	14.9	5
0	55795	14.9	8
0	55796	14.9	5
0	55797	14.9	3
0	55798	14.9	5
0	55799	14.9	3
0	55800	14.9	1
0	55801	14.9	1
0	56021	14.95	3
0	56022	14.95	5
0	56023	14.95	3
0	56024	14.95	5
0	56025	14.95	8
0	56026	14.95	5
0	56027	14.95	3
0	56028	14.95	5
0	56029	14.95	3
0	56030	14.95	1
0	56031	14.95	1
0	56271	15	3
0	56272	15	5
0	56273	15	3
0	56274	15	5
0	56275	15	8
0	56276	15	5
0	56277	15	3
0	56278	15	5
0	56279	15	3
0	56280	15	1
0	56281	15	1
0	56285	15	3
0	56286	15	5
0	56287	15	3
0	56288	15	5
0	56289	15	8
0	56290	15	5
0	56291	15	3
0	56292	15	5
0	56293	15	3
0	56294	15	1
0	56295	15	1
0	56526	15.05	3
0	56527	15.05	5
0	56528	15.05	3
0	56529	15.05	5
0	56530	15.05	8
0	56531	15.05	5
0	56532	15.05	3
0	56533	15.05	5
0	56534	15.05	3
0	56535	15.05	1
0	56536	15.05	1
0	56699	15.1	3
0	56700	15.1	5
0	56701	15.1	3
0	56702	15.1	5
0	56703	15.1	8
0	56704	15.1	5
0	56705	15.1	3
0	56706	15.1	5
0	56707	15.1	3
0	56708	15.1	1
0	56709	15.1	1
0	56713	15.1	3
0	56714	15.1	5
0	56715	15.1	3
0	56716	15.1	5
0	56717	15.1	8
0	56718	15.1	5
0	56719	15.1	3
0	56720	15.1	5
0	56721	15.1	3
0	56722	15.1	1
0	56723	15.1	1
0	57004	15.15	3
0	57005	15.15	5
0	57006	15.15	3
0	57007	15.15	5
0	57008	15.15	8
0	57009	15.15	5
0	57010	15.15	3
0	57011	15.15	5
0	57012	15.15	3
0	57013	15.15	1
0	57014	15.15	1
0	57126	15.2	3
0	57127	15.2	5
0	57128	15.2	3
0	57129	15.2	5
0	57130	15.2	8
0	57131	15.2	5
0	57132	15.2	3
0	57133	15.2	5
0	57134	15.2	3
0	57135	15.2	1
0	57136	15.2	1
0	57140	15.2	3
0	57141	15.2	5
0	57142	15.2	3
0	57143	15.2	5
0	57144	15.2	8
0	57145	15.2	5
0	57146	15.2	3
0	57147	15.2	5
0	57148	15.2	3
0	57149	15.2	1
0	57150	15.2	1
0	57305	15.25	3
0	57306	15.25	5
0	57307	15.25	3
0	57308	15.25	5
0	57309	15.25	8
0	57310	15.25	5
0	57311	15.25	3
0	57312	15.25	5
0	57313	15.25	3
0	57314	15.25	1
0	57315	15.25	1
0	57409	15.3	3
0	57410	15.3	5
0	57411	15.3	3
0	57412	15.3	5
0	57413	15.3	8
0	57414	15.3	5
0	57415	15.3	3
0	57416	15.3	5
0	57417	15.3	3
0	57418	15.3	1
0	57419	15.3	1
0	57423	15.3	3
0	57424	15.3	5
0	57425	15.3	3
0	57426	15.3	5
0	57427	15.3	8
0	57428	15.3	5
0	57429	15.3	3
0	57430	15.3	5
0	57431	15.3	3
0	57432	15.3	1
0	57433	15.3	1
0	57549	15.35	3
0	57550	15.35	5
0	57551	15.35	3
0	57552	15.35	5
0	57553	15.35	8
0	57554	15.35	5
0	57555	15.35	3
0	57556	15.35	5
0	57557	15.35	3
0	57558	15.35	1
0	57559	15.35	1
0	57694	15.4	3
0	57695	15.4	5
0	57696	15.4	3
0	57697	15.4	5
0	57698	15.4	8
0	57699	15.4	5
0	57700	15.4	3
0	57701	15.4	5
0	57702	15.4	3
0	57703	15.4	1
0	57704	15.4	1
0	57708	15.4	3
0	57709	15.4	5
0	57710	15.4	3
0	57711	15.4	5
0	57712	15.4	8
0	57713	15.4	5
0	57714	15.4	3
0	57715	15.4	5
0	57716	15.4	3
0	57717	15.4	1
0	57718	15.4	1
0	57949	15.45	3
0	57950	15.45	5
0	57951	15.45	3
0	57952	15.45	5
0	57953	15.45	8
0	57954	15.45	5
0	57955	15.45	3
0	57956	15.45	5
0	57957	15.45	3
0	57958	15.45	1
0	57959	15.45	1
0	58143	15.5	3
0	58144	15.5	5
0	58145	15.5	3
0	58146	15.5	5
0	58147	15.5	8
0	58148	15.5	5
0	58149	15.5	3
0	58150	15.5	5
0	58151	15.5	3
0	58152	15.5	1
0	58153	15.5	1
0	58157	15.5	3
0	58158	15.5	5
0	58159	15.5	3
0	58160	15.5	5
0	58161	15.5	8
0	58162	15.5	5
0	58163	15.5	3
0	58164	15.5	5
0	58165	15.5	3
0	58166	15.5	1
0	58167	15.5	1
0	58451	15.55	3
0	58452	15.55	5
0	58453	15.55	3
0	58454	15.55	5
0	58455	15.55	8
0	58456	15.55	5
0	58457	15.55	3
0	58458	15.55	5
0	58459	15.55	3
0	58460	15.55	1
0	58461	15.55	1
0	58643	15.6	3
0	58644	15.6	5
0	58645	15.6	3
0	58646	15.6	5
0	58647	15.6	8
0	58648	15.6	5
0	58649	15.6	3
0	58650	15.6	5
0	58651	15.6	3
0	58652	15.6	1
0	58653	15.6	1
0	58657	15.6	3
0	58658	15.6	5
0	58659	15.6	3
0	58660	15.6	5
0	58661	15.6	8
0	58662	15.6	5
0	58663	15.6	3
0	58664	15.6	5
0	58665	15.6	3
0	58666	15.6	1
0	58667	15.6	1
0	58847	15.65	3
0	58848	15.65	5
0	58849	15.65	3
0	58850	15.65	5
0	58851	15.65	8
0	58852	15.65	5
0	58853	15.65	3
0	58854	15.65	5
0	58855	15.65	3
0	58856	15.65	1
0	58857	15.65	1
0	59061	15.7	3
0	59062	15.7	5
0	59063	15.7	3
0	59064	15.7	5
0	59065	15.7	8
0	59066	15.7	5
0	59067	15.7	3
0	59068	15.7	5
0	59069	15.7	3
0	59070	15.7	1
0	59071	15.7	1
0	59075	15.7	3
0	59076	15.7	5
0	59077	15.7	3
0	59078	15.7	5
0	59079	15.7	8
0	59080	15.7	5
0	59081	15.7	3
0	59082	15.7	5
0	59083	15.7	3
0	59084	15.7	1
0	59085	15.7	1
0	59219	15.75	3
0	59220	15.75	5
0	59221	15.75	3
0	59222	15.75	5
0	59223	15.75	8
0	59224	15.75	5
0	59225	15.75	3
0	59226	15.75	5
0	59227	15.75	3
0	59228	15.75	1
0	59229	15.75	1
0	59341	15.8	3
0	59342	15.8	5
0	59343	15.8	3
0	59344	15.8	5
0	59345	15.8	8
0	59346	15.8	5
0	59347	15.8	3
0	59348	15.8	5
0	59349	15.8	3
0	59350	15.8	1
0	59351	15.8	1
0	59355	15.8	3
0	59356	15.8	5
0	59357	15.8	3
0	59358	15.8	5
0	59359	15.8	8
0	59360	15.8	5
0	59361	15.8	3
0	59362	15.8	5
0	59363	15.8	3
0	59364	15.8	1
0	59365	15.8	1
0	59481	15.85	3
0	59482	15.85	5
0	59483	15.85	3
0	59484	15.85	5
0	59485	15.85	8
0	59486	15.85	5
0	59487	15.85	3
0	59488	15.85	5
0	59489	15.85	3
0	59490	15.85	1
0	59491	15.85	1
0	59580	15.9	3
0	59581	15.9	5
0	59582	15.9	3
0	59583	15.9	5
0	59584	15.9	8
0	59585	15.9	5
0	59586	15.9	3
0	59587	15.9	5
0	59588	15.9	3
0	59589	15.9	1
0	59590	15.9	1
0	59594	15.9	3
0	59595	15.9	5
0	59596	15.9	3
0	59597	15.9	5
0	59598	15.9	8
0	59599	15.9	5
0	59600	15.9	3
0	59601	15.9	5
0	59602	15.9	3
0	59603	15.9	1
0	59604	15.9	1
0	59761	15.95	3
0	59762	15.95	5
0	59763	15.95	3
0	59764	15.95	5
0	59765	15.95	8
0	59766	15.95	5
0	59767	15.95	3
0	59768	15.95	5
0	59769	15.95	3
0	59770	15.95	1
0	59771	15.95	1
0	59951	16	3
0	59952	16	5
0	59953	16	3
0	59954	16	5
0	59955	16	8
0	59956	16	5
0	59957	16	3
0	59958	16	5
0	59959	16	3
0	59960	16	1
0	59961	16	1
0	59965	16	3
0	59966	16	5
0	59967	16	3
0	59968	16	5
0	59969	16	8
0	59970	16	5
0	59971	16	3
0	59972	16	5
0	59973	16	3
0	59974	16	1
0	59975	16	1
0	60206	16.05	3
0	60207	16.05	5
0	60208	16.05	3
0	60209	16.05	5
0	60210	16.05	8
0	60211	16.05	5
0	60212	16.05	3
0	60213	16.05	5
0	60214	16.05	3
0	60215	16.05	1
0	60216	16.05	1
0	60533	16.1	3
0	60534	16.1	5
0	60535	16.1	3
0	60536	16.1	5
0	60537	16.1	8
0	60538	16.1	5
0	60539	16.1	3
0	60540	16.1	5
0	60541	16.1	3
0	60542	16.1	1
0	60543	16.1	1
0	60547	16.1	3
0	60548	16.1	5
0	60549	16.1	3
0	60550	16.1	5
0	60551	16.1	8
0	60552	16.1	5
0	60553	16.1	3
0	60554	16.1	5
0	60555	16.1	3
0	60556	16.1	1
0	60557	16.1	1
0	60759	16.15	3
0	60760	16.15	5
0	60761	16.15	3
0	60762	16.15	5
0	60763	16.15	8
0	60764	16.15	5
0	60765	16.15	3
0	60766	16.15	5
[...]
3	182141	48.16164899642	72192
3	182172	48.16628899642	72333
3	182195	48.17548899642	72474
3	182214	48.18012899642	72615
3	182233	48.18932899642	72756
3	182252	48.19396899642	72897
3	182403	48.20316899642	73038
3	182422	48.20780899642	73179
3	182453	48.21700899642	73320
3	182476	48.22164899642	73461
3	182493	48.23548899642	73602
3	182512	48.24932899642	73743
3	182831	48.30468899642	73884
3	183036	48.383626728067	74025
3	184030	48.69780899642	74166
3	184183	48.71164899642	74307
3	184743	48.88396899642	74448
3	184762	48.89780899642	74589
3	185512	49.098272534095	74730
3	185698	49.112112534095	74871
3	186215	49.262302591762	75012
3	186258	49.276142591762	75153
3	186637	49.383626728067	75294
3	186656	49.397466728067	75435
3	186814	49.411306728067	75576
3	187521	49.633626728067	75717
3	187897	49.733626728067	75858
3	187916	49.747466728067	75999
3	189640	50.283626728067	76140
3	191244	50.783626728067	76281
3	191271	50.797466728067	76422
3	191431	50.811306728067	76563
3	191531	50.825146728067	76704
3	191544	50.833626728067	76845
3	191566	50.847466728067	76986
3	191688	50.852826728067	77127
3	191730	50.866666728067	77268
3	191760	50.880506728067	77409
3	191944	50.933626728067	77550
3	191962	50.947466728067	77691
3	192083	50.961306728067	77832
3	192395	51.033626728067	77973
3	192414	51.047466728067	78114
3	192534	51.061306728067	78255
3	192574	51.075146728067	78396
3	192593	51.088986728067	78537
3	192770	51.102826728067	78678
3	192789	51.116666728067	78819
3	192808	51.130506728067	78960
3	193025	51.183626728067	79101
3	193046	51.197466728067	79242
3	193206	51.211306728067	79383
3	193312	51.248426728067	79524
3	193431	51.262266728067	79665
3	193662	51.348426728067	79806
3	193787	51.362266728067	79947
3	193853	51.376106728067	80088
3	193871	51.389946728067	80229
3	196127	52.133626728067	80370
3	196776	52.333626728067	80511
3	196795	52.347466728067	80652
3	197116	52.433626728067	80793
3	197440	52.533626728067	80934
3	197458	52.547466728067	81075
3	198229	52.78396899642	81216
3	198507	52.82548899642	81357
3	198550	52.83932899642	81498
3	198720	52.88084899642	81639
3	198734	52.89468899642	81780
3	199119	52.983626728067	81921
3	199167	52.997466728067	82062
3	199178	52.998426728067	82203
3	199355	53.012266728067	82344
3	199559	53.053786728067	82485
3	199581	53.067626728067	82626
3	199600	53.081466728067	82767
3	199619	53.095306728067	82908
3	199796	53.109146728067	83049
3	199815	53.122986728067	83190
3	200043	53.183626728067	83331
3	200065	53.197466728067	83472
3	200222	53.211306728067	83613
3	200268	53.225146728067	83754
3	200287	53.238986728067	83895
3	200405	53.252826728067	84036
3	200424	53.266666728067	84177
3	200443	53.280506728067	84318
3	200652	53.33396899642	84459
3	200671	53.34780899642	84600
3	200796	53.36164899642	84741
3	200906	53.37548899642	84882
3	200937	53.38932899642	85023
3	201141	53.433626728067	85164
3	202084	53.733626728067	85305
3	202250	53.783626728067	85446
3	202553	53.88396899642	85587
3	202572	53.89780899642	85728
3	202737	53.91164899642	85869
3	203006	53.983626728067	86010
3	203408	54.083626728067	86151
3	203442	54.098426728067	86292
3	203627	54.112266728067	86433
3	203692	54.126106728067	86574
3	204198	54.283626728067	86715
3	205099	54.533626728067	86856
3	205294	54.583626728067	86997
3	205304	54.58396899642	87138
3	205331	54.597466728067	87279
3	205611	54.648426728067	87420
3	205613	54.648426728067	87561
3	206331	54.833626728067	87702
3	206350	54.847466728067	87843
3	207232	55.088456785734	87984
3	207415	55.102296785734	88125
3	207486	55.14780899642	88266
3	207711	55.198426728067	88407
3	207713	55.198426728067	88548
3	208395	55.383626728067	88689
3	209233	55.643584192201	88830
3	211141	56.188456785734	88971
3	211160	56.193584192201	89112
3	211317	56.202296785734	89253
3	211380	56.24780899642	89394
3	211588	56.283626728067	89535
3	211618	56.298426728067	89676
3	212334	56.483626728067	89817
3	213386	56.78396899642	89958
3	215458	57.383626728067	90099
3	215460	57.383626728067	90240
3	216159	57.583626728067	90381
3	217066	57.848426728067	90522
3	218174	58.133626728067	90663
3	219006	58.398426728067	90804
3	219357	58.483626728067	90945
3	221068	58.983626728067	91086
3	221991	59.233626728067	91227
3	222010	59.238456785734	91368
3	222130	59.252296785734	91509
3	222155	59.293816785734	91650
3	222310	59.307656785734	91791
3	222843	59.498426728067	91932
3	223171	59.583626728067	92073
3	224075	59.802296785734	92214
3	225700	60.28396899642	92355
3	225719	60.29780899642	92496
3	226019	60.33932899642	92637
3	226048	60.348641530515	92778
3	226168	60.353471588182	92919
3	226959	60.583626728067	93060
3	226988	60.597466728067	93201
3	226998	60.598426728067	93342
3	227165	60.611306728067	93483
3	227250	60.625146728067	93624
3	227268	60.633626728067	93765
3	227287	60.638986728067	93906
3	227411	60.652826728067	94047
3	227473	60.683626728067	94188
3	228019	60.83396899642	94329
3	228315	60.888456785734	94470
3	228334	60.893584192201	94611
3	228489	60.907424192201	94752
3	228520	60.921264192201	94893
3	228539	60.935104192201	95034
3	228558	60.948944192201	95175
3	229312	61.133626728067	95316
3	229341	61.148426728067	95457
3	229532	61.183626728067	95598
3	229551	61.197466728067	95739
3	230411	61.43396899642	95880
3	233228	62.283626728067	96021
3	233406	62.33396899642	96162
3	233931	62.498272534095	96303
3	234156	62.525952534095	96444
3	234175	62.539792534095	96585
3	234977	62.783626728067	96726
3	235233	62.848426728067	96867
3	235353	62.862266728067	97008
3	235699	62.99780899642	97149
3	235858	63.01164899642	97290
3	235938	63.036401530515	97431
3	236470	63.198462591762	97572
3	236629	63.212302591762	97713
3	236711	63.226142591762	97854
3	236829	63.253822591762	97995
3	236870	63.295342591762	98136
3	237066	63.333626728067	98277
3	237280	63.398426728067	98418
3	237433	63.412266728067	98559
3	237905	63.583626728067	98700
3	239798	64.133626728067	98841
3	239817	64.138456785734	98982
3	239934	64.152296785734	99123
3	239977	64.166136785734	99264
3	240896	64.433626728067	99405
3	240898	64.433626728067	99546
3	240928	64.447466728067	99687
3	244611	65.533626728067	99828
3	244630	65.538266728067	99969
3	244658	65.543584192201	100110
3	244780	65.557424192201	100251
3	245704	65.83396899642	100392
3	245723	65.84780899642	100533
3	245836	65.86164899642	100674
3	247204	66.283626728067	100815
3	247223	66.297466728067	100956
3	247556	66.39780899642	101097
3	248399	66.633626728067	101238
3	249451	66.93396899642	101379
3	249470	66.94780899642	101520
3	249592	66.96164899642	101661
3	249797	67.00316899642	101802
3	249832	67.01700899642	101943
3	249877	67.03084899642	102084
3	249896	67.04468899642	102225
3	250470	67.183626728067	102366
3	250489	67.188266728067	102507
3	250508	67.193584192201	102648
3	250667	67.202106728067	102789
3	250689	67.207424192201	102930
3	251270	67.383626728067	103071
3	253370	67.99780899642	103212
3	254392	68.283626728067	103353
3	254394	68.283626728067	103494
3	254424	68.288266728067	103635
3	255077	68.483626728067	103776
3	255314	68.53396899642	103917
3	255333	68.54780899642	104058
3	255450	68.56164899642	104199
3	255493	68.57548899642	104340
3	257779	69.28396899642	104481
3	257798	69.29780899642	104622
3	257954	69.32548899642	104763
3	258076	69.35316899642	104904
3	258145	69.383626728067	105045
3	259019	69.63396899642	105186
3	259038	69.64780899642	105327
3	259162	69.66164899642	105468
3	259226	69.67548899642	105609
3	259856	69.883626728067	105750
3	261689	70.433788787521	105891
3	261901	70.483657075634	106032
3	262151	70.533626728067	106173
3	262181	70.547466728067	106314
3	262300	70.557566529761	106455
3	262318	70.561306728067	106596
3	262357	70.575146728067	106737
3	262375	70.588986728067	106878
3	262812	70.683626728067	107019
3	262830	70.697466728067	107160
3	262984	70.711306728067	107301
3	263005	70.725146728067	107442
3	263816	70.983628916224	107583
3	263835	70.997468942614	107724
3	264084	71.033695289293	107865
3	264103	71.047535704908	108006
3	264229	71.0613761212	108147
3	264272	71.075216538165	108288
3	264307	71.089056955797	108429
3	264486	71.102897374089	108570
3	264790	71.183629910663	108711
3	264809	71.197469942438	108852
3	264966	71.211309974586	108993
3	265009	71.225150007108	109134
3	265028	71.238990040005	109275
3	265146	71.252830073275	109416
3	265185	71.271356905819	109557
3	266082	71.533632102883	109698
3	266093	71.53397665562	109839
3	266297	71.583626728067	109980
3	266304	71.583736076049	110121
3	266331	71.5975765136	110262
3	266910	71.733633615865	110403
3	266929	71.747473662619	110544
3	268240	72.133626728067	110685
3	268764	72.288429351149	110826
3	269897	72.633642811206	110967
3	270109	72.698621842954	111108
3	271723	73.183650402453	111249
3	272436	73.383867174138	111390
3	273669	73.783897600493	111531
3	274727	74.083747589753	111672
3	274741	74.097589951864	111813
3	274922	74.111432320374	111954
3	274983	74.125274693719	112095
3	275002	74.13911707027	112236
3	275124	74.15295944834	112377
3	275155	74.166801826182	112518
3	275203	74.180644201994	112659
3	275225	74.193601609977	112800
3	275236	74.194486573921	112941
3	275406	74.208328940057	113082
3	275470	74.221281847345	113223
3	275481	74.22217129845	113364
3	275508	74.235121966672	113505
3	275519	74.236013647105	113646
3	275541	74.24985598399	113787
3	275663	74.263698307038	113928
3	275726	74.277540614156	114069
3	275745	74.283670268434	114210
3	275764	74.291382903227	114351
3	275923	74.305225172116	114492
3	275978	74.31906741868	114633
3	276021	74.332909640769	114774
3	276032	74.33392813686	114915
3	276167	74.360594002949	115056
3	276225	74.374436138785	115197
3	276244	74.388278241651	115338
3	276401	74.402120309484	115479
3	276436	74.415962340262	115620
3	276484	74.443646282812	115761
3	276612	74.45748819081	115902
3	276710	74.485171871339	116043
3	277666	74.738392191157	116184
3	277685	74.743606649661	116325
3	277805	74.752231952292	116466
3	277836	74.766071713597	116607
3	277855	74.779911475076	116748
3	277874	74.793751236731	116889
3	278823	75.043655106908	117030
3	279699	75.283787962671	117171
3	280071	75.383759786767	117312
3	282796	76.133978264829	117453
3	282818	76.14363735507	117594
3	282832	76.147818264829	117735
3	282944	76.157477145045	117876
3	282963	76.161658264829	118017
3	282981	76.175498264829	118158
3	282994	76.189338264829	118299
3	284077	76.4837735374	118440
3	285032	76.783978187827	118581
3	285423	76.88374323957	118722
3	285442	76.897583441507	118863
3	286953	77.33397685875	119004
3	286972	77.347816842581	119145
3	288333	77.73370318753	119286
3	288385	77.747543025187	119427
3	288393	77.747818264829	119568
3	288539	77.775498264829	119709
3	290215	78.283626728067	119850
3	290222	78.283688455681	119991
3	290249	78.297466728067	120132
3	290403	78.311306728067	120273
3	290442	78.325146728067	120414
3	290460	78.338986728067	120555
3	290579	78.352826728067	120696
3	290609	78.366666728067	120837
3	290627	78.380506728067	120978
3	290645	78.394346728067	121119
3	290800	78.408186728067	121260
3	290884	78.422026728067	121401
3	290911	78.435866728067	121542
3	291031	78.463546728067	121683
3	291049	78.477386728067	121824
3	291067	78.491226728067	121965
3	291221	78.505066728067	122106
3	291960	78.733626728067	122247
3	291978	78.747466728067	122388
3	292101	78.761306728067	122529
3	292161	78.775146728067	122670
3	292200	78.788986728067	122811
3	292355	78.802826728067	122952
3	292461	78.833626728067	123093
3	292479	78.847466728067	123234
3	293164	79.033827746851	123375
3	293183	79.047667989614	123516
3	293298	79.061508232442	123657
3	293338	79.07534847533	123798
3	293357	79.089188718277	123939
3	293540	79.103028961278	124080
3	293574	79.116869204329	124221
3	293914	79.198634705236	124362
3	294071	79.212474948542	124503
3	294132	79.22631519187	124644
3	294151	79.240155435216	124785
3	294266	79.253995678578	124926
3	294297	79.267835921952	125067
3	294327	79.283626728067	125208
3	294345	79.295516408719	125349
3	294356	79.297466728067	125490
3	294528	79.309356652105	125631
3	294623	79.323196895488	125772
3	294649	79.333978264829	125913
3	294676	79.337037138863	126054
3	294707	79.347818264829	126195
3	294846	79.350877382228	126336
3	294868	79.364717625578	126477
3	294988	79.37855786891	126618
3	295007	79.385970738417	126759
3	295029	79.392398112219	126900
3	295179	79.406238355503	127041
3	295219	79.420078598756	127182
3	295238	79.433918841976	127323
3	295252	79.447759085157	127464
3	295378	79.461599328298	127605
3	295502	79.484676375528	127746
3	295904	79.583850981474	127887
3	295950	79.597691223995	128028
3	296105	79.611531466432	128169
3	296145	79.625371708779	128310
3	296164	79.639211951034	128451
3	299258	80.472366529761	128592
3	299276	80.483626728067	128733
3	299290	80.486206529761	128874
3	299313	80.497466728067	129015
3	299476	80.511306728067	129156
3	299495	80.525146728067	129297
3	299514	80.538986728067	129438
3	299633	80.552826728067	129579
3	299680	80.566666728067	129720
3	299915	80.633626728067	129861
3	299933	80.647466728067	130002
3	300052	80.661306728067	130143
3	300268	80.733652900498	130284
3	300287	80.747492900498	130425
3	300406	80.761332900498	130566
3	300467	80.775172900498	130707
3	300486	80.789012900498	130848
3	300649	80.802852900498	130989
3	300720	80.816692900498	131130
3	300785	80.830532900498	131271
3	300804	80.833626728067	131412
3	301538	81.033626728067	131553
3	301557	81.047466728067	131694
3	303503	81.583626728067	131835
3	303505	81.583626728067	131976
3	304106	81.743684874489	132117
3	304228	81.757524874489	132258
3	304459	81.833652900498	132399
3	304478	81.847492900498	132540
3	304736	81.88386883114	132681
3	304755	81.89770883114	132822
3	304916	81.91154883114	132963
3	304981	81.92538883114	133104
3	305328	82.033626728067	133245
3	305346	82.047466728067	133386
3	305549	82.083652900498	133527
3	305577	82.097492900498	133668
3	306594	82.383652900498	133809
3	307311	82.583626728067	133950
3	307569	82.633652900498	134091
3	308278	82.843684874489	134232
3	308398	82.857524874489	134373
3	308423	82.885204874489	134514
3	309366	83.133626728067	134655
3	309598	83.183626728067	134796
3	309605	83.183652900498	134937
3	309641	83.197466728067	135078
3	310336	83.393684874489	135219
3	310487	83.407524874489	135360
3	310506	83.421364874489	135501
3	310525	83.435204874489	135642
3	310722	83.483652900498	135783
3	310741	83.488412804292	135924
3	310902	83.502252804292	136065
3	310952	83.516092804292	136206
3	310995	83.529932804292	136347
3	311898	83.793757360223	136488
3	312798	84.038412804292	136629
3	313533	84.233626728067	136770
3	313777	84.283626728067	136911
3	313784	84.283652900498	137052
3	314852	84.583652900498	137193
3	316468	85.043684874489	137334
3	316799	85.133652900498	137475
3	316818	85.138412804292	137616
3	316942	85.152252804292	137757
3	316989	85.166092804292	137898
3	317741	85.383626728067	138039
3	317748	85.383652900498	138180
3	320689	86.233652900498	138321
3	321275	86.383626728067	138462
3	321293	86.397466728067	138603
3	321672	86.483652900498	138744
3	321894	86.540363132097	138885
3	323362	86.93386883114	139026
3	323381	86.94770883114	139167
3	323505	86.96154883114	139308
3	323571	86.97538883114	139449
3	323590	86.983626728067	139590
3	323608	86.98922883114	139731
3	323772	87.00306883114	139872
3	324656	87.29866883114	140013
3	324811	87.31250883114	140154
3	324866	87.32634883114	140295
3	324989	87.35402883114	140436
3	325428	87.483626728067	140577
3	325626	87.533626728067	140718
3	325814	87.583652900498	140859
3	327744	88.133652900498	141000
3	328660	88.383652900498	141141
3	328694	88.397492900498	141282
3	328705	88.39866883114	141423
3	328868	88.41250883114	141564
3	328911	88.42634883114	141705
3	329446	88.583626728067	141846
3	329704	88.633626728067	141987
3	329714	88.634043132097	142128
3	329736	88.647883132097	142269
3	330044	88.703243132097	142410
3	330078	88.717083132097	142551
3	330883	88.94866883114	142692
3	330996	88.96250883114	142833
3	331775	89.183626728067	142974
3	331992	89.233652900498	143115
3	332865	89.483652900498	143256
3	332899	89.49866883114	143397
3	333052	89.51250883114	143538
3	333586	89.683626728067	143679
3	337129	90.733626728067	143820
3	337505	90.833626728067	143961
3	337659	90.883626728067	144102
3	337819	90.911306728067	144243
3	337874	90.925146728067	144384
3	337893	90.938986728067	144525
3	338023	90.952826728067	144666
3	338085	90.966666728067	144807
3	338680	91.133626728067	144948
3	338682	91.133626728067	145089
3	338712	91.147466728067	145230
3	338714	91.147466728067	145371
3	338836	91.161306728067	145512
3	338871	91.175146728067	145653
3	338890	91.188986728067	145794
3	339043	91.202826728067	145935
3	339066	91.216666728067	146076
3	339102	91.230506728067	146217
3	339497	91.347883132097	146358
3	339621	91.361723132097	146499
3	339705	91.383626728067	146640
3	339712	91.383652900498	146781
3	340833	91.683626728067	146922
3	340852	91.697466728067	147063
3	341005	91.711306728067	147204
3	341760	91.948324874489	147345
3	341880	91.962164874489	147486
3	341920	91.976004874489	147627
3	341939	91.989844874489	147768
3	342101	92.003684874489	147909
3	342168	92.017524874489	148050
3	342818	92.183652900498	148191
3	343246	92.28386883114	148332
3	344020	92.483652900498	148473
3	344062	92.498272534095	148614
3	344069	92.498324874489	148755
3	345932	92.983626728067	148896
3	345950	92.997466728067	149037
3	346107	93.011306728067	149178
3	346211	93.048324874489	149319
3	347097	93.283652900498	149460
3	347976	93.533626728067	149601
3	347994	93.547466728067	149742
3	348158	93.583626728067	149883
3	350133	94.133626728067	150024
3	350140	94.13386883114	150165
3	350267	94.16154883114	150306
3	351050	94.383652900498	150447
3	352119	94.68386883114	150588
3	352138	94.69770883114	150729
3	353063	94.933652900498	150870
3	353082	94.947492900498	151011
3	353256	94.99770883114	151152
3	353414	95.01154883114	151293
3	353454	95.02538883114	151434
3	353473	95.03922883114	151575
3	353601	95.05306883114	151716
3	354081	95.183626728067	151857
3	354099	95.197466728067	151998
3	354307	95.233626728067	152139
3	354314	95.23386883114	152280
3	355176	95.483652900498	152421
3	355190	95.488292900498	152562
3	355209	95.497492900498	152703
3	356221	95.78386883114	152844
3	357140	96.033652900498	152985
3	358097	96.283626728067	153126
3	358326	96.333626728067	153267
3	359156	96.583652900498	153408
3	359184	96.588292900498	153549
3	361166	97.133652900498	153690
3	362041	97.383626728067	153831
3	362237	97.433626728067	153972
3	364014	97.933626728067	154113
3	364021	97.93386883114	154254
3	364048	97.94770883114	154395
3	364165	97.96154883114	154536
3	364217	97.97538883114	154677
3	365089	98.233652900498	154818
3	365311	98.284043132097	154959
3	365464	98.311723132097	155100
3	365618	98.353243132097	155241
3	366047	98.483626728067	155382
3	366222	98.533626728067	155523
3	366906	98.73386883114	155664
3	366925	98.74770883114	155805
3	367074	98.78922883114	155946
3	367265	98.81690883114	156087
3	367302	98.83074883114	156228
3	367321	98.84458883114	156369
3	367447	98.85842883114	156510
3	368077	99.033652900498	156651
3	368096	99.047492900498	156792
3	368216	99.061332900498	156933
3	369104	99.333652900498	157074
3	369913	99.543684874489	157215
3	370039	99.557524874489	157356
3	370116	99.571364874489	157497
3	370138	99.583652900498	157638
3	370158	99.585204874489	157779
3	370345	99.633626728067	157920
3	372919	100.383626728067	158061
3	373150	100.434043132097	158202
3	373286	100.461723132097	158343
3	373359	100.475563132097	158484
3	373514	100.503243132097	158625
3	373561	100.517083132097	158766
3	374804	100.893684874489	158907
3	374959	100.907524874489	159048
3	374999	100.921364874489	159189
3	375018	100.935204874489	159330
3	375037	100.949044874489	159471
3	375156	100.962884874489	159612
3	376239	101.233626728067	159753
3	380669	102.493684874489	159894
3	380822	102.507524874489	160035
3	380862	102.521364874489	160176
3	445191	120.988202066244	160317
3	445348	121.002042066244	160458
3	445374	121.015882066244	160599
3	445410	121.029722066244	160740
3	445429	121.043562066244	160881
3	445546	121.057402066244	161022
3	445586	121.071242066244	161163
3	445626	121.085082066244	161304
3	450621	122.583626728067	161445

