version 2
run Dgw-0-20191002-00:03:39-16990
attr configname Dgw
attr datetime 20191002-00:03:39
attr experiment Dgw
attr inifile SimV2.ini
attr iterationvars ""
attr iterationvarsf ""
attr measurement ""
attr network NetworkTormV2
attr processid 16990
attr repetition 0
attr replication #0
attr resultdir results
attr runnumber 0
attr seedset 0
param **.mobility.traceFile "\"paths/Dgw.movements\""
param **.numNodes 4
param **.application.usedRNG 1
param **.application.dataGenerationInterval 1s
param **.application.dataSizeInBytes 10
param **.application.ttl 999999s
param **application.nodesThatGen true
param **application.nodesGenMsg "\"0,1,2,3\""
param **application.startMultipleMsg false
param **application.numMultipleMsg 100
param **application.hopsListSize 50
param **.application.endGeneratingMsg 90s
param **.routingLayer "\"RoutingLqeGw\""
param **.routing.maximumCacheSize 5000byte
param **.routing.maximumHopCount 25
param **.routing.useTTL false
param **.routing.waitBFsend 0.5
param **.routing.max_age 999999s
param **.routing.gateway_list "\"\""
param **.routing.actual_gateway "\"\""
param **.routing.gwCheckPeriod 5s
param **.numNodes 2
param **.application.usedRNG 1
param **.application.dataGenerationInterval 1ms
param **.application.dataSizeInBytes 10
param **.application.ttl 999999s
param **application.destinationAddr "\"Wf:00:00:00:00:02\""
param **application.destinationBTAddr "\"Bt:00:00:00:00:02\""
param **application.nodesThatGen true
param **application.nodesGenMsg "\"0\""
param **application.startMultipleMsg true
param **application.numMultipleMsg 100
param **application.hopsListSize 50
param **.application.endGeneratingMsg 999999s
param **.routingLayer "\"RoutingLqeGw\""
param **.routing.maximumCacheSize 5000byte
param **.routing.maximumHopCount 25
param **.routing.useTTL false
param **.routing.waitBFsend 0.5
param **.routing.max_age 999999s
param **.routing.gateway_list "\"Wf:00:00:00:00:02;0|.\""
param **.routing.actual_gateway "\"Wf:00:00:00:00:02\""
param **.routing.gwCheckPeriod 5s
param **.neighboring.antiEntropyInterval 500ms
param **.neighboring.maximumRandomBackoffDuration 1s
param **.neighboring.delayPerDataMsg 0.1
param **neighboring.usedRNG 2
param **.neighboring.GWAddr "\"Wf:00:00:00:00:02\""
param **.neighboring.sendWifiFirst true
param **.neighboring.maxLengthGraph 20
param **.neighboring.max_age 999999s
param **.neighboring.max_absent_time 1s
param **.wirelessIfc.wirelessRange 40m
param **.wirelessIfc.neighbourScanInterval 50ms
param **.wirelessIfc.bandwidthBitRate 100000bps
param **.wirelessIfc.wirelessHeaderSize 32byte
param **.wirelessIfc.minSSI -90
param **.wirelessIfc.limitQueueTime 400ms
param **.wirelessIfc.my_limit_rate 0bps
param **.bluetoothIfc.wirelessRange 40m
param **.bluetoothIfc.neighbourScanInterval 100ms
param **.bluetoothIfc.bandwidthBitRate 100000bps
param **.bluetoothIfc.wirelessHeaderSize 16byte
param **.bluetoothIfc.minSSI -90
param **.mobilityType "\"BonnMotionMobility\""
param **.mobility.traceFile "\"paths/Moves2.movements\""
param **.mobility.is3D false
param **.mobility.nodeId -1

vector 0 NetworkTormV2 neighbourhoodSize:vector ETV
attr source neighbourhoodSize
vector 1 NetworkTormV2 deliveryRatio:vector ETV
attr source sum(totalDataBytesReceived)/sum(totalDataBytesReceivableByAllNodes)
vector 2 NetworkTormV2 dataBytesReceivedSum:vector ETV
attr source sum(dataBytesReceived)
vector 3 NetworkTormV2 totalBytesReceivedSum:vector ETV
attr source sum(totalBytesReceived)
0	13	0.05	1
0	14	0.05	2
0	15	0.05	1
0	16	0.05	0
0	30	0.1	1
0	32	0.1	2
0	34	0.1	1
0	36	0.1	0
0	38	0.1	1
0	39	0.1	2
0	40	0.1	1
0	41	0.1	0
0	64	0.15	1
0	65	0.15	2
0	66	0.15	1
0	67	0.15	0
0	80	0.2	1
0	81	0.2	2
0	82	0.2	1
0	83	0.2	0
0	85	0.2	1
0	86	0.2	2
0	87	0.2	1
0	88	0.2	0
0	107	0.25	1
0	108	0.25	2
0	109	0.25	1
0	110	0.25	0
0	123	0.3	1
0	124	0.3	2
0	125	0.3	1
0	126	0.3	0
0	128	0.3	1
0	129	0.3	2
0	130	0.3	1
0	131	0.3	0
0	150	0.35	1
0	151	0.35	2
0	152	0.35	1
0	153	0.35	0
0	166	0.4	1
0	167	0.4	2
0	168	0.4	1
0	169	0.4	0
0	171	0.4	1
0	172	0.4	2
0	173	0.4	1
0	174	0.4	0
0	193	0.45	1
0	194	0.45	2
0	195	0.45	1
0	196	0.45	0
0	209	0.5	1
0	210	0.5	2
0	211	0.5	1
0	212	0.5	0
0	214	0.5	1
0	215	0.5	2
0	216	0.5	1
0	217	0.5	0
0	236	0.55	1
0	237	0.55	2
0	238	0.55	1
0	239	0.55	0
0	252	0.6	1
0	253	0.6	2
0	254	0.6	1
0	255	0.6	0
0	257	0.6	1
0	258	0.6	2
0	259	0.6	1
0	260	0.6	0
0	279	0.65	1
0	280	0.65	2
0	281	0.65	1
0	282	0.65	0
0	295	0.7	1
0	296	0.7	2
0	297	0.7	1
0	298	0.7	0
0	300	0.7	1
0	301	0.7	2
0	302	0.7	1
0	303	0.7	0
0	322	0.75	1
0	323	0.75	2
0	324	0.75	1
0	325	0.75	0
0	338	0.8	1
0	339	0.8	2
0	340	0.8	1
0	341	0.8	0
0	343	0.8	1
0	344	0.8	2
0	345	0.8	1
0	346	0.8	0
0	365	0.85	1
0	366	0.85	2
0	367	0.85	1
0	368	0.85	0
0	381	0.9	1
0	382	0.9	2
0	383	0.9	1
0	384	0.9	0
0	386	0.9	1
0	387	0.9	2
0	388	0.9	1
0	389	0.9	0
0	408	0.95	1
0	409	0.95	2
0	410	0.95	1
0	411	0.95	0
0	424	1	1
0	425	1	2
0	426	1	1
0	427	1	0
0	429	1	1
0	430	1	2
0	431	1	1
0	432	1	0
0	451	1.05	1
0	452	1.05	2
0	453	1.05	1
0	454	1.05	0
0	471	1.1	1
0	472	1.1	2
0	473	1.1	1
0	474	1.1	0
0	476	1.1	1
0	477	1.1	2
0	478	1.1	1
0	479	1.1	0
0	558	1.15	1
0	559	1.15	2
0	560	1.15	1
0	561	1.15	0
0	574	1.2	1
0	575	1.2	2
0	576	1.2	1
0	577	1.2	0
0	579	1.2	1
0	580	1.2	2
0	581	1.2	1
0	582	1.2	0
0	601	1.25	1
0	602	1.25	2
0	603	1.25	1
0	604	1.25	0
0	617	1.3	1
0	618	1.3	2
0	619	1.3	1
0	620	1.3	0
0	622	1.3	1
0	623	1.3	2
0	624	1.3	1
0	625	1.3	0
0	644	1.35	1
0	645	1.35	2
0	646	1.35	1
0	647	1.35	0
0	660	1.4	1
0	661	1.4	2
0	662	1.4	1
0	663	1.4	0
0	665	1.4	1
0	666	1.4	2
0	667	1.4	1
0	668	1.4	0
0	687	1.45	1
0	688	1.45	2
0	689	1.45	1
0	690	1.45	0
0	703	1.5	1
0	704	1.5	2
0	705	1.5	1
0	706	1.5	0
0	708	1.5	1
0	709	1.5	2
0	710	1.5	1
0	711	1.5	0
0	730	1.55	1
0	731	1.55	2
0	732	1.55	1
0	733	1.55	0
0	746	1.6	1
0	747	1.6	2
0	748	1.6	1
0	749	1.6	0
0	751	1.6	1
0	752	1.6	2
0	753	1.6	1
0	754	1.6	0
0	773	1.65	1
0	774	1.65	2
0	775	1.65	1
0	776	1.65	0
0	845	1.7	1
0	846	1.7	2
0	847	1.7	1
0	848	1.7	0
0	850	1.7	1
0	851	1.7	2
0	852	1.7	1
0	853	1.7	0
0	872	1.75	1
0	873	1.75	2
0	874	1.75	1
0	875	1.75	0
0	888	1.8	1
0	889	1.8	2
0	890	1.8	1
0	891	1.8	0
0	893	1.8	1
0	894	1.8	2
0	895	1.8	1
0	896	1.8	0
0	915	1.85	1
0	916	1.85	2
0	917	1.85	1
0	918	1.85	0
0	931	1.9	1
0	932	1.9	2
0	933	1.9	1
0	934	1.9	0
0	936	1.9	1
0	937	1.9	2
0	938	1.9	1
0	939	1.9	0
0	958	1.95	1
0	959	1.95	2
0	960	1.95	1
0	961	1.95	0
0	974	2	1
0	975	2	2
0	976	2	1
0	977	2	0
0	979	2	1
0	980	2	2
0	981	2	1
0	982	2	0
0	1001	2.05	1
0	1002	2.05	2
0	1003	2.05	1
0	1004	2.05	0
0	1021	2.1	1
0	1022	2.1	2
0	1023	2.1	1
0	1024	2.1	0
0	1026	2.1	1
0	1027	2.1	2
0	1028	2.1	1
0	1029	2.1	0
0	1052	2.15	1
0	1053	2.15	2
0	1054	2.15	1
0	1055	2.15	0
0	1068	2.2	1
0	1069	2.2	2
0	1070	2.2	1
0	1071	2.2	0
0	1073	2.2	1
0	1074	2.2	2
0	1075	2.2	1
0	1076	2.2	0
0	1151	2.25	1
0	1152	2.25	2
0	1153	2.25	1
0	1154	2.25	0
0	1167	2.3	1
0	1168	2.3	2
0	1169	2.3	1
0	1170	2.3	0
0	1172	2.3	1
0	1173	2.3	2
0	1174	2.3	1
0	1175	2.3	0
0	1194	2.35	1
0	1195	2.35	2
0	1196	2.35	1
0	1197	2.35	0
0	1210	2.4	1
0	1211	2.4	2
0	1212	2.4	1
0	1213	2.4	0
0	1215	2.4	1
0	1216	2.4	2
0	1217	2.4	1
0	1218	2.4	0
0	1237	2.45	1
0	1238	2.45	2
0	1239	2.45	1
0	1240	2.45	0
0	1253	2.5	1
0	1254	2.5	2
0	1255	2.5	1
0	1256	2.5	0
0	1258	2.5	1
0	1259	2.5	2
0	1260	2.5	1
0	1261	2.5	0
0	1280	2.55	1
0	1281	2.55	2
0	1282	2.55	1
0	1283	2.55	0
0	1296	2.6	1
0	1297	2.6	2
0	1298	2.6	1
0	1299	2.6	0
0	1301	2.6	1
0	1302	2.6	2
0	1303	2.6	1
0	1304	2.6	0
0	1323	2.65	1
0	1324	2.65	2
0	1325	2.65	1
0	1326	2.65	0
0	1339	2.7	1
0	1340	2.7	2
0	1341	2.7	1
0	1342	2.7	0
0	1344	2.7	1
0	1345	2.7	2
0	1346	2.7	1
0	1347	2.7	0
0	1366	2.75	1
0	1367	2.75	2
0	1368	2.75	1
0	1369	2.75	0
0	1438	2.8	1
0	1439	2.8	2
0	1440	2.8	1
0	1441	2.8	0
0	1443	2.8	1
0	1444	2.8	2
0	1445	2.8	1
0	1446	2.8	0
0	1465	2.85	1
0	1466	2.85	2
0	1467	2.85	1
0	1468	2.85	0
0	1481	2.9	1
0	1482	2.9	2
0	1483	2.9	1
0	1484	2.9	0
0	1486	2.9	1
0	1487	2.9	2
0	1488	2.9	1
0	1489	2.9	0
0	1508	2.95	1
0	1509	2.95	2
0	1510	2.95	1
0	1511	2.95	0
0	1524	3	1
0	1525	3	2
0	1526	3	1
0	1527	3	0
0	1529	3	1
0	1530	3	2
0	1531	3	1
0	1532	3	0
0	1551	3.05	1
0	1552	3.05	2
0	1553	3.05	1
0	1554	3.05	0
0	1571	3.1	1
0	1572	3.1	2
0	1573	3.1	1
0	1574	3.1	0
0	1576	3.1	1
0	1577	3.1	2
0	1578	3.1	1
0	1579	3.1	0
0	1602	3.15	1
0	1603	3.15	2
0	1604	3.15	1
0	1605	3.15	0
0	1618	3.2	1
0	1619	3.2	2
0	1620	3.2	1
0	1621	3.2	0
0	1623	3.2	1
0	1624	3.2	2
0	1625	3.2	1
0	1626	3.2	0
0	1645	3.25	1
0	1646	3.25	2
0	1647	3.25	1
0	1648	3.25	0
0	1661	3.3	1
0	1662	3.3	2
0	1663	3.3	1
0	1664	3.3	0
0	1666	3.3	1
0	1667	3.3	2
0	1668	3.3	1
0	1669	3.3	0
0	1744	3.35	1
0	1745	3.35	2
0	1746	3.35	1
0	1747	3.35	0
0	1760	3.4	1
0	1761	3.4	2
0	1762	3.4	1
0	1763	3.4	0
0	1765	3.4	1
0	1766	3.4	2
0	1767	3.4	1
0	1768	3.4	0
0	1787	3.45	1
0	1788	3.45	2
0	1789	3.45	1
0	1790	3.45	0
0	1803	3.5	1
0	1804	3.5	2
0	1805	3.5	1
0	1806	3.5	0
0	1808	3.5	1
0	1809	3.5	2
0	1810	3.5	1
0	1811	3.5	0
0	1830	3.55	1
0	1831	3.55	2
0	1832	3.55	1
0	1833	3.55	0
0	1846	3.6	1
0	1847	3.6	2
0	1848	3.6	1
0	1849	3.6	0
0	1851	3.6	1
0	1852	3.6	2
0	1853	3.6	1
0	1854	3.6	0
0	1873	3.65	1
0	1874	3.65	2
0	1875	3.65	1
0	1876	3.65	0
0	1889	3.7	1
0	1890	3.7	2
0	1891	3.7	1
0	1892	3.7	0
0	1894	3.7	1
0	1895	3.7	2
0	1896	3.7	1
0	1897	3.7	0
0	1916	3.75	1
0	1917	3.75	2
0	1918	3.75	1
0	1919	3.75	0
0	1932	3.8	1
0	1933	3.8	2
0	1934	3.8	1
0	1935	3.8	0
0	1937	3.8	1
0	1938	3.8	2
0	1939	3.8	1
0	1940	3.8	0
0	1959	3.85	1
0	1960	3.85	2
0	1961	3.85	1
0	1962	3.85	0
0	2027	3.9	1
0	2028	3.9	2
0	2029	3.9	1
0	2030	3.9	0
0	2032	3.9	1
0	2033	3.9	2
0	2034	3.9	1
0	2035	3.9	0
0	2054	3.95	1
0	2055	3.95	2
0	2056	3.95	1
0	2057	3.95	0
0	2070	4	1
0	2071	4	2
0	2072	4	1
0	2073	4	0
0	2075	4	1
0	2076	4	2
0	2077	4	1
0	2078	4	0
0	2097	4.05	1
0	2098	4.05	2
0	2099	4.05	1
0	2100	4.05	0
0	2117	4.1	1
0	2118	4.1	2
0	2119	4.1	1
0	2120	4.1	0
0	2122	4.1	1
0	2123	4.1	2
0	2124	4.1	1
0	2125	4.1	0
0	2148	4.15	1
0	2149	4.15	2
0	2150	4.15	1
0	2151	4.15	0
0	2164	4.2	1
0	2165	4.2	2
0	2166	4.2	1
0	2167	4.2	0
0	2169	4.2	1
0	2170	4.2	2
0	2171	4.2	1
0	2172	4.2	0
0	2191	4.25	1
0	2192	4.25	2
0	2193	4.25	1
0	2194	4.25	0
0	2207	4.3	1
0	2208	4.3	2
0	2209	4.3	1
0	2210	4.3	0
0	2212	4.3	1
0	2213	4.3	2
0	2214	4.3	1
0	2215	4.3	0
0	2234	4.35	1
0	2235	4.35	2
0	2236	4.35	1
0	2237	4.35	0
0	2250	4.4	1
0	2251	4.4	2
0	2252	4.4	1
0	2253	4.4	0
0	2255	4.4	1
0	2256	4.4	2
0	2257	4.4	1
0	2258	4.4	0
0	2333	4.45	1
0	2334	4.45	2
0	2335	4.45	1
0	2336	4.45	0
0	2349	4.5	1
0	2350	4.5	2
0	2351	4.5	1
0	2352	4.5	0
0	2354	4.5	1
0	2355	4.5	2
0	2356	4.5	1
0	2357	4.5	0
0	2376	4.55	1
0	2377	4.55	2
0	2378	4.55	1
0	2379	4.55	0
0	2392	4.6	1
0	2393	4.6	2
0	2394	4.6	1
0	2395	4.6	0
0	2397	4.6	1
0	2398	4.6	2
0	2399	4.6	1
0	2400	4.6	0
0	2419	4.65	1
0	2420	4.65	2
0	2421	4.65	1
0	2422	4.65	0
0	2435	4.7	1
0	2436	4.7	2
0	2437	4.7	1
0	2438	4.7	0
0	2440	4.7	1
0	2441	4.7	2
0	2442	4.7	1
0	2443	4.7	0
0	2462	4.75	1
0	2463	4.75	2
0	2464	4.75	1
0	2465	4.75	0
0	2478	4.8	1
0	2479	4.8	2
0	2480	4.8	1
0	2481	4.8	0
0	2483	4.8	1
0	2484	4.8	2
0	2485	4.8	1
0	2486	4.8	0
0	2505	4.85	1
0	2506	4.85	2
0	2507	4.85	1
0	2508	4.85	0
0	2521	4.9	1
0	2522	4.9	2
0	2523	4.9	1
0	2524	4.9	0
0	2526	4.9	1
0	2527	4.9	2
0	2528	4.9	1
0	2529	4.9	0
0	2548	4.95	1
0	2549	4.95	2
0	2550	4.95	1
0	2551	4.95	0
0	2613	5	1
0	2614	5	2
0	2615	5	1
0	2616	5	0
0	2618	5	1
0	2619	5	2
0	2620	5	1
0	2621	5	0
0	2640	5.05	1
0	2641	5.05	2
0	2642	5.05	1
0	2643	5.05	0
0	2660	5.1	1
0	2661	5.1	2
0	2662	5.1	1
0	2663	5.1	0
0	2665	5.1	1
0	2666	5.1	2
0	2667	5.1	1
0	2668	5.1	0
0	2691	5.15	1
0	2692	5.15	2
0	2693	5.15	1
0	2694	5.15	0
0	2707	5.2	1
0	2708	5.2	2
0	2709	5.2	1
0	2710	5.2	0
0	2712	5.2	1
0	2713	5.2	2
0	2714	5.2	1
0	2715	5.2	0
0	2734	5.25	1
0	2735	5.25	2
0	2736	5.25	1
0	2737	5.25	0
0	2750	5.3	1
0	2751	5.3	2
0	2752	5.3	1
0	2753	5.3	0
0	2755	5.3	1
0	2756	5.3	2
0	2757	5.3	1
0	2758	5.3	0
0	2777	5.35	1
0	2778	5.35	2
0	2779	5.35	1
0	2780	5.35	0
0	2793	5.4	1
0	2794	5.4	2
0	2795	5.4	1
0	2796	5.4	0
0	2798	5.4	1
0	2799	5.4	2
0	2800	5.4	1
0	2801	5.4	0
0	2820	5.45	1
0	2821	5.45	2
0	2822	5.45	1
0	2823	5.45	0
0	2839	5.5	1
0	2840	5.5	2
0	2841	5.5	1
0	2842	5.5	0
0	2844	5.5	1
0	2845	5.5	2
0	2846	5.5	1
0	2847	5.5	0
0	2963	5.55	1
0	2964	5.55	2
0	2965	5.55	1
0	2966	5.55	0
0	3045	5.6	1
0	3046	5.6	2
0	3047	5.6	1
0	3048	5.6	0
0	3050	5.6	1
0	3051	5.6	2
0	3052	5.6	1
0	3053	5.6	0
0	3083	5.65	1
0	3084	5.65	2
0	3085	5.65	1
0	3086	5.65	0
0	3113	5.7	1
0	3114	5.7	2
0	3115	5.7	1
0	3116	5.7	0
0	3118	5.7	1
0	3119	5.7	2
0	3120	5.7	1
0	3121	5.7	0
0	3140	5.75	1
0	3141	5.75	2
0	3142	5.75	1
0	3143	5.75	0
0	3156	5.8	1
0	3157	5.8	2
0	3158	5.8	1
0	3159	5.8	0
0	3161	5.8	1
0	3162	5.8	2
0	3163	5.8	1
0	3164	5.8	0
0	3183	5.85	1
0	3184	5.85	2
0	3185	5.85	1
0	3186	5.85	0
0	3199	5.9	1
0	3200	5.9	2
0	3201	5.9	1
0	3202	5.9	0
0	3204	5.9	1
0	3205	5.9	2
0	3206	5.9	1
0	3207	5.9	0
0	3226	5.95	1
0	3227	5.95	2
0	3228	5.95	1
0	3229	5.95	0
0	3245	6	1
0	3246	6	2
0	3247	6	1
0	3248	6	0
0	3250	6	1
0	3251	6	2
0	3252	6	1
0	3253	6	0
0	3272	6.05	1
0	3273	6.05	2
0	3274	6.05	1
0	3275	6.05	0
0	3349	6.1	1
0	3350	6.1	2
0	3351	6.1	1
0	3352	6.1	0
0	3354	6.1	1
0	3355	6.1	2
0	3356	6.1	1
0	3357	6.1	0
0	3380	6.15	1
0	3381	6.15	2
0	3382	6.15	1
0	3383	6.15	0
0	3396	6.2	1
0	3397	6.2	2
0	3398	6.2	1
0	3399	6.2	0
0	3401	6.2	1
0	3402	6.2	2
0	3403	6.2	1
0	3404	6.2	0
0	3437	6.25	1
0	3438	6.25	2
0	3439	6.25	1
0	3440	6.25	0
0	3453	6.3	1
0	3454	6.3	2
0	3455	6.3	1
0	3456	6.3	0
0	3458	6.3	1
0	3459	6.3	2
0	3460	6.3	1
0	3461	6.3	0
0	3480	6.35	1
0	3481	6.35	2
0	3482	6.35	1
0	3483	6.35	0
0	3496	6.4	1
0	3497	6.4	2
0	3498	6.4	1
0	3499	6.4	0
0	3501	6.4	1
0	3502	6.4	2
0	3503	6.4	1
0	3504	6.4	0
0	3523	6.45	1
0	3524	6.45	2
0	3525	6.45	1
0	3526	6.45	0
0	3542	6.5	1
0	3543	6.5	2
0	3544	6.5	1
0	3545	6.5	0
0	3547	6.5	1
0	3548	6.5	2
0	3549	6.5	1
0	3550	6.5	0
0	3569	6.55	1
0	3570	6.55	2
0	3571	6.55	1
0	3572	6.55	0
0	3585	6.6	1
0	3586	6.6	2
0	3587	6.6	1
0	3588	6.6	0
0	3590	6.6	1
0	3591	6.6	2
0	3592	6.6	1
0	3593	6.6	0
0	3679	6.65	1
0	3680	6.65	2
0	3681	6.65	1
0	3682	6.65	0
0	3695	6.7	1
0	3696	6.7	2
0	3697	6.7	1
0	3698	6.7	0
0	3700	6.7	1
0	3701	6.7	2
0	3702	6.7	1
0	3703	6.7	0
0	3722	6.75	1
0	3723	6.75	2
0	3724	6.75	1
0	3725	6.75	0
0	3752	6.8	1
0	3753	6.8	2
0	3754	6.8	1
0	3755	6.8	0
0	3757	6.8	1
0	3758	6.8	2
0	3759	6.8	1
0	3760	6.8	0
0	3779	6.85	1
0	3780	6.85	2
0	3781	6.85	1
0	3782	6.85	0
0	3795	6.9	1
0	3796	6.9	2
0	3797	6.9	1
0	3798	6.9	0
0	3800	6.9	1
0	3801	6.9	2
0	3802	6.9	1
0	3803	6.9	0
0	3822	6.95	1
0	3823	6.95	2
0	3824	6.95	1
0	3825	6.95	0
0	3841	7	1
0	3842	7	2
0	3843	7	1
0	3844	7	0
0	3846	7	1
0	3847	7	2
0	3848	7	1
0	3849	7	0
0	3868	7.05	1
0	3869	7.05	2
0	3870	7.05	1
0	3871	7.05	0
0	3888	7.1	1
0	3889	7.1	2
0	3890	7.1	1
0	3891	7.1	0
0	3893	7.1	1
0	3894	7.1	2
0	3895	7.1	1
0	3896	7.1	0
0	3919	7.15	1
0	3920	7.15	2
0	3921	7.15	1
0	3922	7.15	0
0	3975	7.2	1
0	3976	7.2	2
0	3977	7.2	1
0	3978	7.2	0
0	3980	7.2	1
0	3981	7.2	2
0	3982	7.2	1
0	3983	7.2	0
0	4002	7.25	1
0	4003	7.25	2
0	4004	7.25	1
0	4005	7.25	0
0	4018	7.3	1
0	4019	7.3	2
0	4020	7.3	1
0	4021	7.3	0
0	4023	7.3	1
0	4024	7.3	2
0	4025	7.3	1
0	4026	7.3	0
0	4062	7.35	1
0	4063	7.35	2
0	4064	7.35	1
0	4065	7.35	0
0	4078	7.4	1
0	4079	7.4	2
0	4080	7.4	1
0	4081	7.4	0
0	4083	7.4	1
0	4084	7.4	2
0	4085	7.4	1
0	4086	7.4	0
0	4105	7.45	1
0	4106	7.45	2
0	4107	7.45	1
0	4108	7.45	0
0	4121	7.5	1
0	4122	7.5	2
0	4123	7.5	1
0	4124	7.5	0
0	4126	7.5	1
0	4127	7.5	2
0	4128	7.5	1
0	4129	7.5	0
0	4148	7.55	1
0	4149	7.55	2
0	4150	7.55	1
0	4151	7.55	0
0	4164	7.6	1
0	4165	7.6	2
0	4166	7.6	1
0	4167	7.6	0
0	4169	7.6	1
0	4170	7.6	2
0	4171	7.6	1
0	4172	7.6	0
0	4191	7.65	1
0	4192	7.65	2
0	4193	7.65	1
0	4194	7.65	0
0	4207	7.7	1
0	4208	7.7	2
0	4209	7.7	1
0	4210	7.7	0
0	4212	7.7	1
0	4213	7.7	2
0	4214	7.7	1
0	4215	7.7	0
0	4248	7.75	1
0	4249	7.75	2
0	4250	7.75	1
0	4251	7.75	0
0	4264	7.8	1
0	4265	7.8	2
0	4266	7.8	1
0	4267	7.8	0
0	4269	7.8	1
0	4270	7.8	2
0	4271	7.8	1
0	4272	7.8	0
0	4291	7.85	1
0	4292	7.85	2
0	4293	7.85	1
0	4294	7.85	0
0	4321	7.9	1
0	4322	7.9	2
0	4323	7.9	1
0	4324	7.9	0
0	4326	7.9	1
0	4327	7.9	2
0	4328	7.9	1
0	4329	7.9	0
0	4348	7.95	1
0	4349	7.95	2
0	4350	7.95	1
0	4351	7.95	0
0	4364	8	1
0	4365	8	2
0	4366	8	1
0	4367	8	0
0	4369	8	1
0	4370	8	2
0	4371	8	1
0	4372	8	0
0	4391	8.05	1
0	4392	8.05	2
0	4393	8.05	1
0	4394	8.05	0
0	4411	8.1	1
0	4412	8.1	2
0	4413	8.1	1
0	4414	8.1	0
0	4416	8.1	1
0	4417	8.1	2
0	4418	8.1	1
0	4419	8.1	0
0	4442	8.15	1
0	4443	8.15	2
0	4444	8.15	1
0	4445	8.15	0
0	4458	8.2	1
0	4459	8.2	2
0	4460	8.2	1
0	4461	8.2	0
0	4463	8.2	1
0	4464	8.2	2
0	4465	8.2	1
0	4466	8.2	0
0	4485	8.25	1
0	4486	8.25	2
0	4487	8.25	1
0	4488	8.25	0
0	4511	8.3	1
0	4512	8.3	2
0	4513	8.3	1
0	4514	8.3	0
0	4516	8.3	1
0	4517	8.3	2
0	4518	8.3	1
0	4519	8.3	0
0	4538	8.35	1
0	4539	8.35	2
0	4540	8.35	1
0	4541	8.35	0
0	4554	8.4	1
0	4555	8.4	2
0	4556	8.4	1
0	4557	8.4	0
0	4559	8.4	1
0	4560	8.4	2
0	4561	8.4	1
0	4562	8.4	0
0	4595	8.45	1
0	4596	8.45	2
0	4597	8.45	1
0	4598	8.45	0
0	4611	8.5	1
0	4612	8.5	2
0	4613	8.5	1
0	4614	8.5	0
0	4616	8.5	1
0	4617	8.5	2
0	4618	8.5	1
0	4619	8.5	0
0	4638	8.55	1
0	4639	8.55	2
0	4640	8.55	1
0	4641	8.55	0
0	4654	8.6	1
0	4655	8.6	2
0	4656	8.6	1
0	4657	8.6	0
0	4659	8.6	1
0	4660	8.6	2
0	4661	8.6	1
0	4662	8.6	0
0	4681	8.65	1
0	4682	8.65	2
0	4683	8.65	1
0	4684	8.65	0
0	4697	8.7	1
0	4698	8.7	2
0	4699	8.7	1
0	4700	8.7	0
0	4702	8.7	1
0	4703	8.7	2
0	4704	8.7	1
0	4705	8.7	0
0	4724	8.75	1
0	4725	8.75	2
0	4726	8.75	1
0	4727	8.75	0
0	4754	8.8	1
0	4755	8.8	2
0	4756	8.8	1
0	4757	8.8	0
0	4759	8.8	1
0	4760	8.8	2
0	4761	8.8	1
0	4762	8.8	0
0	4807	8.85	1
0	4808	8.85	2
0	4809	8.85	1
0	4810	8.85	0
0	4823	8.9	1
0	4824	8.9	2
0	4825	8.9	1
0	4826	8.9	0
0	4828	8.9	1
0	4829	8.9	2
0	4830	8.9	1
0	4831	8.9	0
0	4888	8.95	1
0	4889	8.95	2
0	4890	8.95	1
0	4891	8.95	0
0	4918	9	1
0	4919	9	2
0	4920	9	1
0	4921	9	0
0	4923	9	1
0	4924	9	2
0	4925	9	1
0	4926	9	0
0	4945	9.05	1
0	4946	9.05	2
0	4947	9.05	1
0	4948	9.05	0
0	4965	9.1	1
0	4966	9.1	2
0	4967	9.1	1
0	4968	9.1	0
0	4970	9.1	1
0	4971	9.1	2
0	4972	9.1	1
0	4973	9.1	0
0	4996	9.15	1
0	4997	9.15	2
0	4998	9.15	1
0	4999	9.15	0
0	5012	9.2	1
0	5013	9.2	2
0	5014	9.2	1
0	5015	9.2	0
0	5017	9.2	1
0	5018	9.2	2
0	5019	9.2	1
0	5020	9.2	0
0	5039	9.25	1
0	5040	9.25	2
0	5041	9.25	1
0	5042	9.25	0
0	5055	9.3	1
0	5056	9.3	2
0	5057	9.3	1
0	5058	9.3	0
0	5060	9.3	1
0	5061	9.3	2
0	5062	9.3	1
0	5063	9.3	0
0	5096	9.35	1
0	5097	9.35	2
0	5098	9.35	1
0	5099	9.35	0
0	5122	9.4	1
0	5123	9.4	2
0	5124	9.4	1
0	5125	9.4	0
0	5127	9.4	1
0	5128	9.4	2
0	5129	9.4	1
0	5130	9.4	0
0	5149	9.45	1
0	5150	9.45	2
0	5151	9.45	1
0	5152	9.45	0
0	5191	9.5	1
0	5192	9.5	2
0	5193	9.5	1
0	5194	9.5	0
0	5196	9.5	1
0	5197	9.5	2
0	5198	9.5	1
0	5199	9.5	0
0	5232	9.55	1
0	5233	9.55	2
0	5234	9.55	1
0	5235	9.55	0
0	5248	9.6	1
0	5249	9.6	2
0	5250	9.6	1
0	5251	9.6	0
0	5253	9.6	1
0	5254	9.6	2
0	5255	9.6	1
0	5256	9.6	0
0	5275	9.65	1
0	5276	9.65	2
0	5277	9.65	1
0	5278	9.65	0
0	5291	9.7	1
0	5292	9.7	2
0	5293	9.7	1
0	5294	9.7	0
0	5296	9.7	1
0	5297	9.7	2
0	5298	9.7	1
0	5299	9.7	0
0	5318	9.75	1
0	5319	9.75	2
0	5320	9.75	1
0	5321	9.75	0
0	5334	9.8	1
0	5335	9.8	2
0	5336	9.8	1
0	5337	9.8	0
0	5339	9.8	1
0	5340	9.8	2
0	5341	9.8	1
0	5342	9.8	0
0	5361	9.85	1
0	5362	9.85	2
0	5363	9.85	1
0	5364	9.85	0
0	5391	9.9	1
0	5392	9.9	2
0	5393	9.9	1
0	5394	9.9	0
0	5396	9.9	1
0	5397	9.9	2
0	5398	9.9	1
0	5399	9.9	0
0	5444	9.95	1
0	5445	9.95	2
0	5446	9.95	1
0	5447	9.95	0
0	5461	10	1
0	5462	10	2
0	5463	10	1
0	5464	10	0
0	5466	10	1
0	5467	10	2
0	5468	10	1
0	5469	10	0
0	5502	10.05	1
0	5503	10.05	2
0	5504	10.05	1
0	5505	10.05	0
0	5536	10.1	1
0	5537	10.1	2
0	5538	10.1	1
0	5539	10.1	0
0	5541	10.1	1
0	5542	10.1	2
0	5543	10.1	1
0	5544	10.1	0
0	5567	10.15	1
0	5568	10.15	2
0	5569	10.15	1
0	5570	10.15	0
0	5583	10.2	1
0	5584	10.2	2
0	5585	10.2	1
0	5586	10.2	0
0	5588	10.2	1
0	5589	10.2	2
0	5590	10.2	1
0	5591	10.2	0
0	5610	10.25	1
0	5611	10.25	2
0	5612	10.25	1
0	5613	10.25	0
0	5626	10.3	1
0	5627	10.3	2
0	5628	10.3	1
0	5629	10.3	0
0	5631	10.3	1
0	5632	10.3	2
0	5633	10.3	1
0	5634	10.3	0
0	5653	10.35	1
0	5654	10.35	2
0	5655	10.35	1
0	5656	10.35	0
0	5669	10.4	1
0	5670	10.4	2
0	5671	10.4	1
0	5672	10.4	0
0	5674	10.4	1
0	5675	10.4	2
0	5676	10.4	1
0	5677	10.4	0
0	5710	10.45	1
0	5711	10.45	2
0	5712	10.45	1
0	5713	10.45	0
0	5752	10.5	1
0	5753	10.5	2
0	5754	10.5	1
0	5755	10.5	0
0	5757	10.5	1
0	5758	10.5	2
0	5759	10.5	1
0	5760	10.5	0
0	5779	10.55	1
0	5780	10.55	2
0	5781	10.55	1
0	5782	10.55	0
0	5821	10.6	1
0	5822	10.6	2
0	5823	10.6	1
0	5824	10.6	0
0	5826	10.6	1
0	5827	10.6	2
0	5828	10.6	1
0	5829	10.6	0
0	5862	10.65	1
0	5863	10.65	2
0	5864	10.65	1
0	5865	10.65	0
0	5878	10.7	1
0	5879	10.7	2
0	5880	10.7	1
0	5881	10.7	0
0	5883	10.7	1
0	5884	10.7	2
0	5885	10.7	1
0	5886	10.7	0
0	5905	10.75	1
0	5906	10.75	2
0	5907	10.75	1
0	5908	10.75	0
0	5921	10.8	1
0	5922	10.8	2
0	5923	10.8	1
0	5924	10.8	0
0	5926	10.8	1
0	5927	10.8	2
0	5928	10.8	1
0	5929	10.8	0
0	5948	10.85	1
0	5949	10.85	2
0	5950	10.85	1
0	5951	10.85	0
0	5964	10.9	1
0	5965	10.9	2
0	5966	10.9	1
0	5967	10.9	0
0	5969	10.9	1
0	5970	10.9	2
0	5971	10.9	1
0	5972	10.9	0
0	5991	10.95	1
0	5992	10.95	2
0	5993	10.95	1
0	5994	10.95	0
0	6021	11	1
0	6022	11	2
0	6023	11	1
0	6024	11	0
0	6026	11	1
0	6027	11	2
0	6028	11	1
0	6029	11	0
0	6062	11.05	1
0	6063	11.05	2
0	6064	11.05	1
0	6065	11.05	0
0	6082	11.1	1
0	6083	11.1	2
0	6084	11.1	1
0	6085	11.1	0
0	6087	11.1	1
0	6088	11.1	2
0	6089	11.1	1
0	6090	11.1	0
0	6139	11.15	1
0	6140	11.15	2
0	6141	11.15	1
0	6142	11.15	0
0	6158	11.2	1
0	6159	11.2	2
0	6160	11.2	1
0	6161	11.2	0
0	6163	11.2	1
0	6164	11.2	2
0	6165	11.2	1
0	6166	11.2	0
0	6185	11.25	1
0	6186	11.25	2
0	6187	11.25	1
0	6188	11.25	0
0	6201	11.3	1
0	6202	11.3	2
0	6203	11.3	1
0	6204	11.3	0
0	6206	11.3	1
0	6207	11.3	2
0	6208	11.3	1
0	6209	11.3	0
0	6228	11.35	1
0	6229	11.35	2
0	6230	11.35	1
0	6231	11.35	0
0	6244	11.4	1
0	6245	11.4	2
0	6246	11.4	1
0	6247	11.4	0
0	6249	11.4	1
0	6250	11.4	2
0	6251	11.4	1
0	6252	11.4	0
0	6271	11.45	1
0	6272	11.45	2
0	6273	11.45	1
0	6274	11.45	0
0	6287	11.5	1
0	6288	11.5	2
0	6289	11.5	1
0	6290	11.5	0
0	6292	11.5	1
0	6293	11.5	2
0	6294	11.5	1
0	6295	11.5	0
0	6328	11.55	1
0	6329	11.55	2
0	6330	11.55	1
0	6331	11.55	0
0	6344	11.6	1
0	6345	11.6	2
0	6346	11.6	1
0	6347	11.6	0
0	6349	11.6	1
0	6350	11.6	2
0	6351	11.6	1
0	6352	11.6	0
0	6371	11.65	1
0	6372	11.65	2
0	6373	11.65	1
0	6374	11.65	0
0	6401	11.7	1
0	6402	11.7	2
0	6403	11.7	1
0	6404	11.7	0
0	6406	11.7	1
0	6407	11.7	2
0	6408	11.7	1
0	6409	11.7	0
0	6428	11.75	1
0	6429	11.75	2
0	6430	11.75	1
0	6431	11.75	0
0	6444	11.8	1
0	6445	11.8	2
0	6446	11.8	1
0	6447	11.8	0
0	6449	11.8	1
0	6450	11.8	2
0	6451	11.8	1
0	6452	11.8	0
0	6471	11.85	1
0	6472	11.85	2
0	6473	11.85	1
0	6474	11.85	0
0	6487	11.9	1
0	6488	11.9	2
0	6489	11.9	1
0	6490	11.9	0
0	6492	11.9	1
0	6493	11.9	2
0	6494	11.9	1
0	6495	11.9	0
0	6514	11.95	1
0	6515	11.95	2
0	6516	11.95	1
0	6517	11.95	0
0	6533	12	1
0	6534	12	2
0	6535	12	1
0	6536	12	0
0	6538	12	1
0	6539	12	2
0	6540	12	1
0	6541	12	0
0	6560	12.05	1
0	6561	12.05	2
0	6562	12.05	1
0	6563	12.05	0
0	6594	12.1	1
0	6595	12.1	2
0	6596	12.1	1
0	6597	12.1	0
0	6599	12.1	1
0	6600	12.1	2
0	6601	12.1	1
0	6602	12.1	0
0	6625	12.15	1
0	6626	12.15	2
0	6627	12.15	1
0	6628	12.15	0
0	6641	12.2	1
0	6642	12.2	2
0	6643	12.2	1
0	6644	12.2	0
0	6646	12.2	1
0	6647	12.2	2
0	6648	12.2	1
0	6649	12.2	0
0	6694	12.25	1
0	6695	12.25	2
0	6696	12.25	1
0	6697	12.25	0
0	6710	12.3	1
0	6711	12.3	2
0	6712	12.3	1
0	6713	12.3	0
0	6715	12.3	1
0	6716	12.3	2
0	6717	12.3	1
0	6718	12.3	0
0	6737	12.35	1
0	6738	12.35	2
0	6739	12.35	1
0	6740	12.35	0
0	6753	12.4	1
0	6754	12.4	2
0	6755	12.4	1
0	6756	12.4	0
0	6758	12.4	1
0	6759	12.4	2
0	6760	12.4	1
0	6761	12.4	0
0	6780	12.45	1
0	6781	12.45	2
0	6782	12.45	1
0	6783	12.45	0
0	6796	12.5	1
0	6797	12.5	2
0	6798	12.5	1
0	6799	12.5	0
0	6801	12.5	1
0	6802	12.5	2
0	6803	12.5	1
0	6804	12.5	0
0	6823	12.55	1
0	6824	12.55	2
0	6825	12.55	1
0	6826	12.55	0
0	6839	12.6	1
0	6840	12.6	2
0	6841	12.6	1
0	6842	12.6	0
0	6844	12.6	1
0	6845	12.6	2
0	6846	12.6	1
0	6847	12.6	0
0	6918	12.65	1
0	6919	12.65	2
0	6920	12.65	1
0	6921	12.65	0
0	6934	12.7	1
0	6935	12.7	2
0	6936	12.7	1
0	6937	12.7	0
0	6939	12.7	1
0	6940	12.7	2
0	6941	12.7	1
0	6942	12.7	0
0	6961	12.75	1
0	6962	12.75	2
0	6963	12.75	1
0	6964	12.75	0
0	7005	12.8	1
0	7006	12.8	2
0	7007	12.8	1
0	7008	12.8	0
0	7010	12.8	1
0	7011	12.8	2
0	7012	12.8	1
0	7013	12.8	0
0	7032	12.85	1
0	7033	12.85	2
0	7034	12.85	1
0	7035	12.85	0
0	7048	12.9	1
0	7049	12.9	2
0	7050	12.9	1
0	7051	12.9	0
0	7053	12.9	1
0	7054	12.9	2
0	7055	12.9	1
0	7056	12.9	0
0	7075	12.95	1
0	7076	12.95	2
0	7077	12.95	1
0	7078	12.95	0
0	7091	13	1
0	7092	13	2
0	7093	13	1
0	7094	13	0
0	7096	13	1
0	7097	13	2
0	7098	13	1
0	7099	13	0
0	7118	13.05	1
0	7119	13.05	2
0	7120	13.05	1
0	7121	13.05	0
0	7138	13.1	1
0	7139	13.1	2
0	7140	13.1	1
0	7141	13.1	0
0	7143	13.1	1
0	7144	13.1	2
0	7145	13.1	1
0	7146	13.1	0
0	7169	13.15	1
0	7170	13.15	2
0	7171	13.15	1
0	7172	13.15	0
0	7209	13.2	1
0	7210	13.2	2
0	7211	13.2	1
0	7212	13.2	0
0	7214	13.2	1
0	7215	13.2	2
0	7216	13.2	1
0	7217	13.2	0
0	7236	13.25	1
0	7237	13.25	2
0	7238	13.25	1
0	7239	13.25	0
0	7252	13.3	1
0	7253	13.3	2
0	7254	13.3	1
0	7255	13.3	0
0	7257	13.3	1
0	7258	13.3	2
0	7259	13.3	1
0	7260	13.3	0
0	7316	13.35	1
0	7317	13.35	2
0	7318	13.35	1
0	7319	13.35	0
0	7332	13.4	1
0	7333	13.4	2
0	7334	13.4	1
0	7335	13.4	0
0	7337	13.4	1
0	7338	13.4	2
0	7339	13.4	1
0	7340	13.4	0
0	7359	13.45	1
0	7360	13.45	2
0	7361	13.45	1
0	7362	13.45	0
0	7375	13.5	1
0	7376	13.5	2
0	7377	13.5	1
0	7378	13.5	0
0	7380	13.5	1
0	7381	13.5	2
0	7382	13.5	1
0	7383	13.5	0
0	7402	13.55	1
0	7403	13.55	2
0	7404	13.55	1
0	7405	13.55	0
0	7418	13.6	1
0	7419	13.6	2
0	7420	13.6	1
0	7421	13.6	0
0	7423	13.6	1
0	7424	13.6	2
0	7425	13.6	1
0	7426	13.6	0
0	7445	13.65	1
0	7446	13.65	2
0	7447	13.65	1
0	7448	13.65	0
0	7461	13.7	1
0	7462	13.7	2
0	7463	13.7	1
0	7464	13.7	0
0	7466	13.7	1
0	7467	13.7	2
0	7468	13.7	1
0	7469	13.7	0
0	7528	13.75	1
0	7529	13.75	2
0	7530	13.75	1
0	7531	13.75	0
0	7544	13.8	1
0	7545	13.8	2
0	7546	13.8	1
0	7547	13.8	0
0	7549	13.8	1
0	7550	13.8	2
0	7551	13.8	1
0	7552	13.8	0
0	7571	13.85	1
0	7572	13.85	2
0	7573	13.85	1
0	7574	13.85	0
0	7627	13.9	1
0	7628	13.9	2
0	7629	13.9	1
0	7630	13.9	0
0	7632	13.9	1
0	7633	13.9	2
0	7634	13.9	1
0	7635	13.9	0
0	7654	13.95	1
0	7655	13.95	2
0	7656	13.95	1
0	7657	13.95	0
0	7670	14	1
0	7671	14	2
0	7672	14	1
0	7673	14	0
0	7675	14	1
0	7676	14	2
0	7677	14	1
0	7678	14	0
0	7697	14.05	1
0	7698	14.05	2
0	7699	14.05	1
0	7700	14.05	0
0	7717	14.1	1
0	7718	14.1	2
0	7719	14.1	1
0	7720	14.1	0
0	7722	14.1	1
0	7723	14.1	2
0	7724	14.1	1
0	7725	14.1	0
0	7748	14.15	1
0	7749	14.15	2
0	7750	14.15	1
0	7751	14.15	0
0	7764	14.2	1
0	7765	14.2	2
0	7766	14.2	1
0	7767	14.2	0
0	7769	14.2	1
0	7770	14.2	2
0	7771	14.2	1
0	7772	14.2	0
0	7791	14.25	1
0	7792	14.25	2
0	7793	14.25	1
0	7794	14.25	0
0	7836	14.3	1
0	7837	14.3	2
0	7838	14.3	1
0	7839	14.3	0
0	7841	14.3	1
0	7842	14.3	2
0	7843	14.3	1
0	7844	14.3	0
0	7863	14.35	1
0	7864	14.35	2
0	7865	14.35	1
0	7866	14.35	0
0	7879	14.4	1
0	7880	14.4	2
0	7881	14.4	1
0	7882	14.4	0
0	7884	14.4	1
0	7885	14.4	2
0	7886	14.4	1
0	7887	14.4	0
0	7920	14.45	1
0	7921	14.45	2
0	7922	14.45	1
0	7923	14.45	0
0	7936	14.5	1
0	7937	14.5	2
0	7938	14.5	1
0	7939	14.5	0
0	7941	14.5	1
0	7942	14.5	2
0	7943	14.5	1
0	7944	14.5	0
0	7963	14.55	1
0	7964	14.55	2
0	7965	14.55	1
0	7966	14.55	0
0	7979	14.6	1
0	7980	14.6	2
0	7981	14.6	1
0	7982	14.6	0
0	7984	14.6	1
0	7985	14.6	2
0	7986	14.6	1
0	7987	14.6	0
0	8006	14.65	1
0	8007	14.65	2
0	8008	14.65	1
0	8009	14.65	0
0	8022	14.7	1
0	8023	14.7	2
0	8024	14.7	1
0	8025	14.7	0
0	8027	14.7	1
0	8028	14.7	2
0	8029	14.7	1
0	8030	14.7	0
0	8049	14.75	1
0	8050	14.75	2
0	8051	14.75	1
0	8052	14.75	0
0	8065	14.8	1
0	8066	14.8	2
0	8067	14.8	1
0	8068	14.8	0
0	8070	14.8	1
0	8071	14.8	2
0	8072	14.8	1
0	8073	14.8	0
0	8102	14.85	1
0	8103	14.85	2
0	8104	14.85	1
0	8105	14.85	0
0	8118	14.9	1
0	8119	14.9	2
0	8120	14.9	1
0	8121	14.9	0
0	8123	14.9	1
0	8124	14.9	2
0	8125	14.9	1
0	8126	14.9	0
0	8145	14.95	1
0	8146	14.95	2
0	8147	14.95	1
0	8148	14.95	0
0	8176	15	1
0	8177	15	2
0	8178	15	1
0	8179	15	0
0	8181	15	1
0	8182	15	2
0	8183	15	1
0	8184	15	0
0	8203	15.05	1
0	8204	15.05	2
0	8205	15.05	1
0	8206	15.05	0
0	8223	15.1	1
0	8224	15.1	2
0	8225	15.1	1
0	8226	15.1	0
0	8228	15.1	1
0	8229	15.1	2
0	8230	15.1	1
0	8231	15.1	0
0	8254	15.15	1
0	8255	15.15	2
0	8256	15.15	1
0	8257	15.15	0
0	8270	15.2	1
0	8271	15.2	2
0	8272	15.2	1
0	8273	15.2	0
0	8275	15.2	1
0	8276	15.2	2
0	8277	15.2	1
0	8278	15.2	0
0	8297	15.25	1
0	8298	15.25	2
0	8299	15.25	1
0	8300	15.25	0
0	8313	15.3	1
0	8314	15.3	2
0	8315	15.3	1
0	8316	15.3	0
0	8318	15.3	1
0	8319	15.3	2
0	8320	15.3	1
0	8321	15.3	0
0	8340	15.35	1
0	8341	15.35	2
0	8342	15.35	1
0	8343	15.35	0
0	8382	15.4	1
0	8383	15.4	2
0	8384	15.4	1
0	8385	15.4	0
0	8387	15.4	1
0	8388	15.4	2
0	8389	15.4	1
0	8390	15.4	0
0	8409	15.45	1
0	8410	15.45	2
0	8411	15.45	1
0	8412	15.45	0
0	8463	15.5	1
0	8464	15.5	2
0	8465	15.5	1
0	8466	15.5	0
0	8468	15.5	1
0	8469	15.5	2
0	8470	15.5	1
0	8471	15.5	0
0	8504	15.55	1
0	8505	15.55	2
0	8506	15.55	1
0	8507	15.55	0
0	8520	15.6	1
0	8521	15.6	2
0	8522	15.6	1
0	8523	15.6	0
0	8525	15.6	1
0	8526	15.6	2
0	8527	15.6	1
0	8528	15.6	0
0	8561	15.65	1
0	8562	15.65	2
0	8563	15.65	1
0	8564	15.65	0
0	8577	15.7	1
0	8578	15.7	2
0	8579	15.7	1
0	8580	15.7	0
0	8582	15.7	1
0	8583	15.7	2
0	8584	15.7	1
0	8585	15.7	0
0	8604	15.75	1
0	8605	15.75	2
0	8606	15.75	1
0	8607	15.75	0
0	8620	15.8	1
0	8621	15.8	2
0	8622	15.8	1
0	8623	15.8	0
0	8625	15.8	1
0	8626	15.8	2
0	8627	15.8	1
0	8628	15.8	0
0	8647	15.85	1
0	8648	15.85	2
0	8649	15.85	1
0	8650	15.85	0
0	8663	15.9	1
0	8664	15.9	2
0	8665	15.9	1
0	8666	15.9	0
0	8668	15.9	1
0	8669	15.9	2
0	8670	15.9	1
0	8671	15.9	0
0	8704	15.95	1
0	8705	15.95	2
0	8706	15.95	1
0	8707	15.95	0
0	8720	16	1
0	8721	16	2
0	8722	16	1
0	8723	16	0
0	8725	16	1
0	8726	16	2
0	8727	16	1
0	8728	16	0
0	8761	16.05	1
0	8762	16.05	2
0	8763	16.05	1
0	8764	16.05	0
0	8795	16.1	1
0	8796	16.1	2
0	8797	16.1	1
0	8798	16.1	0
0	8800	16.1	1
0	8801	16.1	2
0	8802	16.1	1
0	8803	16.1	0
0	8826	16.15	1
0	8827	16.15	2
0	8828	16.15	1
0	8829	16.15	0
0	8856	16.2	1
0	8857	16.2	2
0	8858	16.2	1
0	8859	16.2	0
0	8861	16.2	1
0	8862	16.2	2
0	8863	16.2	1
0	8864	16.2	0
0	8883	16.25	1
0	8884	16.25	2
0	8885	16.25	1
0	8886	16.25	0
0	8899	16.3	1
0	8900	16.3	2
0	8901	16.3	1
0	8902	16.3	0
0	8904	16.3	1
0	8905	16.3	2
0	8906	16.3	1
0	8907	16.3	0
0	8926	16.35	1
0	8927	16.35	2
0	8928	16.35	1
0	8929	16.35	0
0	8942	16.4	1
0	8943	16.4	2
0	8944	16.4	1
0	8945	16.4	0
0	8947	16.4	1
0	8948	16.4	2
0	8949	16.4	1
0	8950	16.4	0
0	8969	16.45	1
0	8970	16.45	2
0	8971	16.45	1
0	8972	16.45	0
0	9011	16.5	1
0	9012	16.5	2
0	9013	16.5	1
0	9014	16.5	0
0	9016	16.5	1
0	9017	16.5	2
0	9018	16.5	1
0	9019	16.5	0
0	9038	16.55	1
0	9039	16.55	2
0	9040	16.55	1
0	9041	16.55	0
0	9071	16.6	1
0	9072	16.6	2
0	9073	16.6	1
0	9074	16.6	0
0	9076	16.6	1
0	9077	16.6	2
0	9078	16.6	1
0	9079	16.6	0
0	9112	16.65	1
0	9113	16.65	2
0	9114	16.65	1
0	9115	16.65	0
0	9128	16.7	1
0	9129	16.7	2
0	9130	16.7	1
0	9131	16.7	0
0	9133	16.7	1
0	9134	16.7	2
0	9135	16.7	1
0	9136	16.7	0
0	9169	16.75	1
0	9170	16.75	2
0	9171	16.75	1
0	9172	16.75	0
0	9185	16.8	1
0	9186	16.8	2
0	9187	16.8	1
0	9188	16.8	0
0	9190	16.8	1
0	9191	16.8	2
0	9192	16.8	1
0	9193	16.8	0
0	9212	16.85	1
0	9213	16.85	2
0	9214	16.85	1
0	9215	16.85	0
0	9228	16.9	1
0	9229	16.9	2
0	9230	16.9	1
0	9231	16.9	0
0	9233	16.9	1
0	9234	16.9	2
0	9235	16.9	1
0	9236	16.9	0
0	9255	16.95	1
0	9256	16.95	2
0	9257	16.95	1
0	9258	16.95	0
0	9274	17	1
0	9275	17	2
0	9276	17	1
0	9277	17	0
0	9279	17	1
0	9280	17	2
0	9281	17	1
0	9282	17	0
0	9315	17.05	1
0	9316	17.05	2
0	9317	17.05	1
0	9318	17.05	0
0	9335	17.1	1
0	9336	17.1	2
0	9337	17.1	1
0	9338	17.1	0
0	9340	17.1	1
0	9341	17.1	2
0	9342	17.1	1
0	9343	17.1	0
0	9404	17.15	1
0	9405	17.15	2
0	9406	17.15	1
0	9407	17.15	0
0	9423	17.2	1
0	9424	17.2	2
0	9425	17.2	1
0	9426	17.2	0
0	9428	17.2	1
0	9429	17.2	2
0	9430	17.2	1
0	9431	17.2	0
0	9450	17.25	1
0	9451	17.25	2
0	9452	17.25	1
0	9453	17.25	0
0	9476	17.3	1
0	9477	17.3	2
0	9478	17.3	1
0	9479	17.3	0
0	9481	17.3	1
0	9482	17.3	2
0	9483	17.3	1
0	9484	17.3	0
0	9503	17.35	1
0	9504	17.35	2
0	9505	17.35	1
0	9506	17.35	0
0	9519	17.4	1
0	9520	17.4	2
0	9521	17.4	1
0	9522	17.4	0
0	9524	17.4	1
0	9525	17.4	2
0	9526	17.4	1
0	9527	17.4	0
0	9546	17.45	1
0	9547	17.45	2
0	9548	17.45	1
0	9549	17.45	0
0	9562	17.5	1
0	9563	17.5	2
0	9564	17.5	1
0	9565	17.5	0
0	9567	17.5	1
0	9568	17.5	2
0	9569	17.5	1
0	9570	17.5	0
0	9589	17.55	1
0	9590	17.55	2
0	9591	17.55	1
0	9592	17.55	0
0	9605	17.6	1
0	9606	17.6	2
0	9607	17.6	1
0	9608	17.6	0
0	9610	17.6	1
0	9611	17.6	2
0	9612	17.6	1
0	9613	17.6	0
0	9632	17.65	1
0	9633	17.65	2
0	9634	17.65	1
0	9635	17.65	0
0	9651	17.7	1
0	9652	17.7	2
0	9653	17.7	1
0	9654	17.7	0
0	9656	17.7	1
0	9657	17.7	2
0	9658	17.7	1
0	9659	17.7	0
0	9678	17.75	1
0	9679	17.75	2
0	9680	17.75	1
0	9681	17.75	0
0	9694	17.8	1
0	9695	17.8	2
0	9696	17.8	1
0	9697	17.8	0
0	9699	17.8	1
0	9700	17.8	2
0	9701	17.8	1
0	9702	17.8	0
0	9721	17.85	1
0	9722	17.85	2
0	9723	17.85	1
0	9724	17.85	0
0	9737	17.9	1
0	9738	17.9	2
0	9739	17.9	1
0	9740	17.9	0
0	9742	17.9	1
0	9743	17.9	2
0	9744	17.9	1
0	9745	17.9	0
0	9764	17.95	1
0	9765	17.95	2
0	9766	17.95	1
0	9767	17.95	0
0	9780	18	1
0	9781	18	2
0	9782	18	1
0	9783	18	0
0	9785	18	1
0	9786	18	2
0	9787	18	1
0	9788	18	0
0	9807	18.05	1
0	9808	18.05	2
0	9809	18.05	1
0	9810	18.05	0
0	9827	18.1	1
0	9828	18.1	2
0	9829	18.1	1
0	9830	18.1	0
0	9832	18.1	1
0	9833	18.1	2
0	9834	18.1	1
0	9835	18.1	0
0	9858	18.15	1
0	9859	18.15	2
0	9860	18.15	1
0	9861	18.15	0
0	9874	18.2	1
0	9875	18.2	2
0	9876	18.2	1
0	9877	18.2	0
0	9879	18.2	1
0	9880	18.2	2
0	9881	18.2	1
0	9882	18.2	0
0	9901	18.25	1
0	9902	18.25	2
0	9903	18.25	1
0	9904	18.25	0
0	9917	18.3	1
0	9918	18.3	2
0	9919	18.3	1
0	9920	18.3	0
0	9922	18.3	1
0	9923	18.3	2
0	9924	18.3	1
0	9925	18.3	0
0	9944	18.35	1
0	9945	18.35	2
0	9946	18.35	1
0	9947	18.35	0
0	9960	18.4	1
0	9961	18.4	2
0	9962	18.4	1
0	9963	18.4	0
0	9965	18.4	1
0	9966	18.4	2
0	9967	18.4	1
0	9968	18.4	0
0	9987	18.45	1
0	9988	18.45	2
0	9989	18.45	1
0	9990	18.45	0
0	10003	18.5	1
0	10004	18.5	2
0	10005	18.5	1
0	10006	18.5	0
0	10008	18.5	1
0	10009	18.5	2
0	10010	18.5	1
0	10011	18.5	0
0	10030	18.55	1
0	10031	18.55	2
0	10032	18.55	1
0	10033	18.55	0
0	10046	18.6	1
0	10047	18.6	2
0	10048	18.6	1
0	10049	18.6	0
0	10051	18.6	1
0	10052	18.6	2
0	10053	18.6	1
0	10054	18.6	0
0	10108	18.65	1
0	10109	18.65	2
0	10110	18.65	1
0	10111	18.65	0
0	10124	18.7	1
0	10125	18.7	2
0	10126	18.7	1
0	10127	18.7	0
0	10129	18.7	1
0	10130	18.7	2
0	10131	18.7	1
0	10132	18.7	0
0	10151	18.75	1
0	10152	18.75	2
0	10153	18.75	1
0	10154	18.75	0
0	10181	18.8	1
0	10182	18.8	2
0	10183	18.8	1
0	10184	18.8	0
0	10186	18.8	1
0	10187	18.8	2
0	10188	18.8	1
0	10189	18.8	0
0	10208	18.85	1
0	10209	18.85	2
0	10210	18.85	1
0	10211	18.85	0
0	10238	18.9	1
0	10239	18.9	2
0	10240	18.9	1
0	10241	18.9	0
0	10243	18.9	1
0	10244	18.9	2
0	10245	18.9	1
0	10246	18.9	0
0	10265	18.95	1
0	10266	18.95	2
0	10267	18.95	1
0	10268	18.95	0
0	10281	19	1
0	10282	19	2
0	10283	19	1
0	10284	19	0
0	10286	19	1
0	10287	19	2
0	10288	19	1
0	10289	19	0
0	10334	19.05	1
0	10335	19.05	2
0	10336	19.05	1
0	10337	19.05	0
0	10354	19.1	1
0	10355	19.1	2
0	10356	19.1	1
0	10357	19.1	0
0	10359	19.1	1
0	10360	19.1	2
0	10361	19.1	1
0	10362	19.1	0
0	10385	19.15	1
0	10386	19.15	2
0	10387	19.15	1
0	10388	19.15	0
0	10439	19.2	1
0	10440	19.2	2
0	10441	19.2	1
0	10442	19.2	0
0	10444	19.2	1
0	10445	19.2	2
0	10446	19.2	1
0	10447	19.2	0
0	10466	19.25	1
0	10467	19.25	2
0	10468	19.25	1
0	10469	19.25	0
0	10482	19.3	1
0	10483	19.3	2
0	10484	19.3	1
0	10485	19.3	0
0	10487	19.3	1
0	10488	19.3	2
0	10489	19.3	1
0	10490	19.3	0
0	10523	19.35	1
0	10524	19.35	2
0	10525	19.35	1
0	10526	19.35	0
0	10539	19.4	1
0	10540	19.4	2
0	10541	19.4	1
0	10542	19.4	0
0	10544	19.4	1
0	10545	19.4	2
0	10546	19.4	1
0	10547	19.4	0
0	10580	19.45	1
0	10581	19.45	2
0	10582	19.45	1
0	10583	19.45	0
0	10596	19.5	1
0	10597	19.5	2
0	10598	19.5	1
0	10599	19.5	0
0	10601	19.5	1
0	10602	19.5	2
0	10603	19.5	1
0	10604	19.5	0
0	10623	19.55	1
0	10624	19.55	2
0	10625	19.55	1
0	10626	19.55	0
0	10665	19.6	1
0	10666	19.6	2
0	10667	19.6	1
0	10668	19.6	0
0	10670	19.6	1
0	10671	19.6	2
0	10672	19.6	1
0	10673	19.6	0
0	10692	19.65	1
0	10693	19.65	2
0	10694	19.65	1
0	10695	19.65	0
0	10708	19.7	1
0	10709	19.7	2
0	10710	19.7	1
0	10711	19.7	0
0	10713	19.7	1
0	10714	19.7	2
0	10715	19.7	1
0	10716	19.7	0
0	10749	19.75	1
0	10750	19.75	2
0	10751	19.75	1
0	10752	19.75	0
0	10765	19.8	1
0	10766	19.8	2
0	10767	19.8	1
0	10768	19.8	0
0	10770	19.8	1
0	10771	19.8	2
0	10772	19.8	1
0	10773	19.8	0
0	10792	19.85	1
0	10793	19.85	2
0	10794	19.85	1
0	10795	19.85	0
0	10822	19.9	1
0	10823	19.9	2
0	10824	19.9	1
0	10825	19.9	0
0	10827	19.9	1
0	10828	19.9	2
0	10829	19.9	1
0	10830	19.9	0
0	10849	19.95	1
0	10850	19.95	2
0	10851	19.95	1
0	10852	19.95	0
0	10880	20	1
0	10881	20	2
0	10882	20	1
0	10883	20	0
0	10885	20	1
0	10886	20	2
0	10887	20	1
0	10888	20	0
0	10907	20.05	1
0	10908	20.05	2
0	10909	20.05	1
0	10910	20.05	0
0	10927	20.1	1
0	10928	20.1	2
0	10929	20.1	1
0	10930	20.1	0
0	10932	20.1	1
0	10933	20.1	2
0	10934	20.1	1
0	10935	20.1	0
0	10981	20.15	1
0	10982	20.15	2
0	10983	20.15	1
0	10984	20.15	0
0	10997	20.2	1
0	10998	20.2	2
0	10999	20.2	1
0	11000	20.2	0
0	11002	20.2	1
0	11003	20.2	2
0	11004	20.2	1
0	11005	20.2	0
0	11024	20.25	1
0	11025	20.25	2
0	11026	20.25	1
0	11027	20.25	0
0	11066	20.3	1
0	11067	20.3	2
0	11068	20.3	1
0	11069	20.3	0
0	11071	20.3	1
0	11072	20.3	2
0	11073	20.3	1
0	11074	20.3	0
0	11093	20.35	1
0	11094	20.35	2
0	11095	20.35	1
0	11096	20.35	0
0	11109	20.4	1
0	11110	20.4	2
0	11111	20.4	1
0	11112	20.4	0
0	11114	20.4	1
0	11115	20.4	2
0	11116	20.4	1
0	11117	20.4	0
0	11150	20.45	1
0	11151	20.45	2
0	11152	20.45	1
0	11153	20.45	0
0	11166	20.5	1
0	11167	20.5	2
0	11168	20.5	1
0	11169	20.5	0
0	11171	20.5	1
0	11172	20.5	2
0	11173	20.5	1
0	11174	20.5	0
0	11207	20.55	1
0	11208	20.55	2
0	11209	20.55	1
0	11210	20.55	0
0	11223	20.6	1
0	11224	20.6	2
0	11225	20.6	1
0	11226	20.6	0
0	11228	20.6	1
0	11229	20.6	2
0	11230	20.6	1
0	11231	20.6	0
0	11250	20.65	1
0	11251	20.65	2
0	11252	20.65	1
0	11253	20.65	0
0	11292	20.7	1
0	11293	20.7	2
0	11294	20.7	1
0	11295	20.7	0
0	11297	20.7	1
0	11298	20.7	2
0	11299	20.7	1
0	11300	20.7	0
0	11319	20.75	1
0	11320	20.75	2
0	11321	20.75	1
0	11322	20.75	0
0	11335	20.8	1
0	11336	20.8	2
0	11337	20.8	1
0	11338	20.8	0
0	11340	20.8	1
0	11341	20.8	2
0	11342	20.8	1
0	11343	20.8	0
0	11376	20.85	1
0	11377	20.85	2
0	11378	20.85	1
0	11379	20.85	0
0	11392	20.9	1
0	11393	20.9	2
0	11394	20.9	1
0	11395	20.9	0
0	11397	20.9	1
0	11398	20.9	2
0	11399	20.9	1
0	11400	20.9	0
0	11419	20.95	1
0	11420	20.95	2
0	11421	20.95	1
0	11422	20.95	0
0	11449	21	1
0	11450	21	2
0	11451	21	1
0	11452	21	0
0	11454	21	1
0	11455	21	2
0	11456	21	1
0	11457	21	0
0	11476	21.05	1
0	11477	21.05	2
0	11478	21.05	1
0	11479	21.05	0
0	11499	21.1	1
0	11500	21.1	2
0	11501	21.1	1
0	11502	21.1	0
0	11504	21.1	1
0	11505	21.1	2
0	11506	21.1	1
0	11507	21.1	0
0	11530	21.15	1
0	11531	21.15	2
0	11532	21.15	1
0	11533	21.15	0
0	11546	21.2	1
0	11547	21.2	2
0	11548	21.2	1
0	11549	21.2	0
0	11551	21.2	1
0	11552	21.2	2
0	11553	21.2	1
0	11554	21.2	0
0	11573	21.25	1
0	11574	21.25	2
0	11575	21.25	1
0	11576	21.25	0
0	11589	21.3	1
0	11590	21.3	2
0	11591	21.3	1
0	11592	21.3	0
0	11594	21.3	1
0	11595	21.3	2
0	11596	21.3	1
0	11597	21.3	0
0	11616	21.35	1
0	11617	21.35	2
0	11618	21.35	1
0	11619	21.35	0
0	11658	21.4	1
0	11659	21.4	2
0	11660	21.4	1
0	11661	21.4	0
0	11663	21.4	1
0	11664	21.4	2
0	11665	21.4	1
0	11666	21.4	0
0	11685	21.45	1
0	11686	21.45	2
0	11687	21.45	1
0	11688	21.45	0
0	11701	21.5	1
0	11702	21.5	2
0	11703	21.5	1
0	11704	21.5	0
0	11706	21.5	1
0	11707	21.5	2
0	11708	21.5	1
0	11709	21.5	0
0	11742	21.55	1
0	11743	21.55	2
0	11744	21.55	1
0	11745	21.55	0
0	11758	21.6	1
0	11759	21.6	2
0	11760	21.6	1
0	11761	21.6	0
0	11763	21.6	1
0	11764	21.6	2
0	11765	21.6	1
0	11766	21.6	0
0	11785	21.65	1
0	11786	21.65	2
0	11787	21.65	1
0	11788	21.65	0
0	11801	21.7	1
0	11802	21.7	2
0	11803	21.7	1
0	11804	21.7	0
0	11806	21.7	1
0	11807	21.7	2
0	11808	21.7	1
0	11809	21.7	0
0	11828	21.75	1
0	11829	21.75	2
0	11830	21.75	1
0	11831	21.75	0
0	11844	21.8	1
0	11845	21.8	2
0	11846	21.8	1
0	11847	21.8	0
0	11849	21.8	1
0	11850	21.8	2
0	11851	21.8	1
0	11852	21.8	0
0	11871	21.85	1
0	11872	21.85	2
0	11873	21.85	1
0	11874	21.85	0
0	11887	21.9	1
0	11888	21.9	2
0	11889	21.9	1
0	11890	21.9	0
0	11892	21.9	1
0	11893	21.9	2
0	11894	21.9	1
0	11895	21.9	0
0	11928	21.95	1
0	11929	21.95	2
0	11930	21.95	1
0	11931	21.95	0
0	11947	22	1
0	11948	22	2
0	11949	22	1
0	11950	22	0
0	11952	22	1
0	11953	22	2
0	11954	22	1
0	11955	22	0
0	11974	22.05	1
0	11975	22.05	2
0	11976	22.05	1
0	11977	22.05	0
0	12008	22.1	1
0	12009	22.1	2
0	12010	22.1	1
0	12011	22.1	0
0	12013	22.1	1
0	12014	22.1	2
0	12015	22.1	1
0	12016	22.1	0
0	12039	22.15	1
0	12040	22.15	2
0	12041	22.15	1
0	12042	22.15	0
0	12055	22.2	1
0	12056	22.2	2
0	12057	22.2	1
0	12058	22.2	0
0	12060	22.2	1
0	12061	22.2	2
0	12062	22.2	1
0	12063	22.2	0
0	12082	22.25	1
0	12083	22.25	2
0	12084	22.25	1
0	12085	22.25	0
0	12101	22.3	1
0	12102	22.3	2
0	12103	22.3	1
0	12104	22.3	0
0	12106	22.3	1
0	12107	22.3	2
0	12108	22.3	1
0	12109	22.3	0
0	12128	22.35	1
0	12129	22.35	2
0	12130	22.35	1
0	12131	22.35	0
0	12144	22.4	1
0	12145	22.4	2
0	12146	22.4	1
0	12147	22.4	0
0	12149	22.4	1
0	12150	22.4	2
0	12151	22.4	1
0	12152	22.4	0
0	12171	22.45	1
0	12172	22.45	2
0	12173	22.45	1
0	12174	22.45	0
0	12204	22.5	1
0	12205	22.5	2
0	12206	22.5	1
0	12207	22.5	0
0	12209	22.5	1
0	12210	22.5	2
0	12211	22.5	1
0	12212	22.5	0
0	12231	22.55	1
0	12232	22.55	2
0	12233	22.55	1
0	12234	22.55	0
0	12247	22.6	1
0	12248	22.6	2
0	12249	22.6	1
0	12250	22.6	0
0	12252	22.6	1
0	12253	22.6	2
0	12254	22.6	1
0	12255	22.6	0
0	12284	22.65	1
0	12285	22.65	2
0	12286	22.65	1
0	12287	22.65	0
0	12314	22.7	1
0	12315	22.7	2
0	12316	22.7	1
0	12317	22.7	0
0	12319	22.7	1
0	12320	22.7	2
0	12321	22.7	1
0	12322	22.7	0
0	12341	22.75	1
0	12342	22.75	2
0	12343	22.75	1
0	12344	22.75	0
0	12357	22.8	1
0	12358	22.8	2
0	12359	22.8	1
0	12360	22.8	0
0	12362	22.8	1
0	12363	22.8	2
0	12364	22.8	1
0	12365	22.8	0
0	12422	22.85	1
0	12423	22.85	2
0	12424	22.85	1
0	12425	22.85	0
0	12438	22.9	1
0	12439	22.9	2
0	12440	22.9	1
0	12441	22.9	0
0	12443	22.9	1
0	12444	22.9	2
0	12445	22.9	1
0	12446	22.9	0
0	12465	22.95	1
0	12466	22.95	2
0	12467	22.95	1
0	12468	22.95	0
0	12481	23	1
0	12482	23	2
0	12483	23	1
0	12484	23	0
0	12486	23	1
0	12487	23	2
0	12488	23	1
0	12489	23	0
0	12534	23.05	1
0	12535	23.05	2
0	12536	23.05	1
0	12537	23.05	0
0	12554	23.1	1
0	12555	23.1	2
0	12556	23.1	1
0	12557	23.1	0
0	12559	23.1	1
0	12560	23.1	2
0	12561	23.1	1
0	12562	23.1	0
0	12585	23.15	1
0	12586	23.15	2
0	12587	23.15	1
0	12588	23.15	0
0	12615	23.2	1
0	12616	23.2	2
0	12617	23.2	1
0	12618	23.2	0
0	12620	23.2	1
0	12621	23.2	2
0	12622	23.2	1
0	12623	23.2	0
0	12656	23.25	1
0	12657	23.25	2
0	12658	23.25	1
0	12659	23.25	0
0	12672	23.3	1
0	12673	23.3	2
0	12674	23.3	1
0	12675	23.3	0
0	12677	23.3	1
0	12678	23.3	2
0	12679	23.3	1
0	12680	23.3	0
0	12699	23.35	1
0	12700	23.35	2
0	12701	23.35	1
0	12702	23.35	0
0	12741	23.4	1
0	12742	23.4	2
0	12743	23.4	1
0	12744	23.4	0
0	12746	23.4	1
0	12747	23.4	2
0	12748	23.4	1
0	12749	23.4	0
0	12768	23.45	1
0	12769	23.45	2
0	12770	23.45	1
0	12771	23.45	0
0	12784	23.5	1
0	12785	23.5	2
0	12786	23.5	1
0	12787	23.5	0
0	12789	23.5	1
0	12790	23.5	2
0	12791	23.5	1
0	12792	23.5	0
0	12811	23.55	1
0	12812	23.55	2
0	12813	23.55	1
0	12814	23.55	0
0	12853	23.6	1
0	12854	23.6	2
0	12855	23.6	1
0	12856	23.6	0
0	12858	23.6	1
0	12859	23.6	2
0	12860	23.6	1
0	12861	23.6	0
0	12880	23.65	1
0	12881	23.65	2
0	12882	23.65	1
0	12883	23.65	0
0	12896	23.7	1
0	12897	23.7	2
0	12898	23.7	1
0	12899	23.7	0
0	12901	23.7	1
0	12902	23.7	2
0	12903	23.7	1
0	12904	23.7	0
0	12937	23.75	1
0	12938	23.75	2
0	12939	23.75	1
0	12940	23.75	0
0	12967	23.8	1
0	12968	23.8	2
0	12969	23.8	1
0	12970	23.8	0
0	12972	23.8	1
0	12973	23.8	2
0	12974	23.8	1
0	12975	23.8	0
0	12994	23.85	1
0	12995	23.85	2
0	12996	23.85	1
0	12997	23.85	0
0	13010	23.9	1
0	13011	23.9	2
0	13012	23.9	1
0	13013	23.9	0
0	13015	23.9	1
0	13016	23.9	2
0	13017	23.9	1
0	13018	23.9	0
0	13051	23.95	1
0	13052	23.95	2
0	13053	23.95	1
0	13054	23.95	0
0	13067	24	1
0	13068	24	2
0	13069	24	1
0	13070	24	0
0	13072	24	1
0	13073	24	2
0	13074	24	1
0	13075	24	0
0	13094	24.05	1
0	13095	24.05	2
0	13096	24.05	1
0	13097	24.05	0
0	13114	24.1	1
0	13115	24.1	2
0	13116	24.1	1
0	13117	24.1	0
0	13119	24.1	1
0	13120	24.1	2
0	13121	24.1	1
0	13122	24.1	0
0	13171	24.15	1
0	13172	24.15	2
0	13173	24.15	1
0	13174	24.15	0
0	13187	24.2	1
0	13188	24.2	2
0	13189	24.2	1
0	13190	24.2	0
0	13192	24.2	1
0	13193	24.2	2
0	13194	24.2	1
0	13195	24.2	0
0	13214	24.25	1
0	13215	24.25	2
0	13216	24.25	1
0	13217	24.25	0
0	13244	24.3	1
0	13245	24.3	2
0	13246	24.3	1
0	13247	24.3	0
0	13249	24.3	1
0	13250	24.3	2
0	13251	24.3	1
0	13252	24.3	0
0	13285	24.35	1
0	13286	24.35	2
0	13287	24.35	1
0	13288	24.35	0
0	13301	24.4	1
0	13302	24.4	2
0	13303	24.4	1
0	13304	24.4	0
0	13306	24.4	1
0	13307	24.4	2
0	13308	24.4	1
0	13309	24.4	0
0	13328	24.45	1
0	13329	24.45	2
0	13330	24.45	1
0	13331	24.45	0
0	13370	24.5	1
0	13371	24.5	2
0	13372	24.5	1
0	13373	24.5	0
0	13375	24.5	1
0	13376	24.5	2
0	13377	24.5	1
0	13378	24.5	0
0	13397	24.55	1
0	13398	24.55	2
0	13399	24.55	1
0	13400	24.55	0
0	13413	24.6	1
0	13414	24.6	2
0	13415	24.6	1
0	13416	24.6	0
0	13418	24.6	1
0	13419	24.6	2
0	13420	24.6	1
0	13421	24.6	0
0	13440	24.65	1
0	13441	24.65	2
0	13442	24.65	1
0	13443	24.65	0
0	13470	24.7	1
0	13471	24.7	2
0	13472	24.7	1
0	13473	24.7	0
0	13475	24.7	1
0	13476	24.7	2
0	13477	24.7	1
0	13478	24.7	0
0	13497	24.75	1
0	13498	24.75	2
0	13499	24.75	1
0	13500	24.75	0
0	13513	24.8	1
0	13514	24.8	2
0	13515	24.8	1
0	13516	24.8	0
0	13518	24.8	1
0	13519	24.8	2
0	13520	24.8	1
0	13521	24.8	0
0	13543	24.85	1
0	13544	24.85	2
0	13545	24.85	1
0	13546	24.85	0
0	13573	24.9	1
0	13574	24.9	2
0	13575	24.9	1
0	13576	24.9	0
0	13578	24.9	1
0	13579	24.9	2
0	13580	24.9	1
0	13581	24.9	0
0	13600	24.95	1
0	13601	24.95	2
0	13602	24.95	1
0	13603	24.95	0
0	13617	25	1
0	13618	25	2
0	13619	25	1
0	13620	25	0
0	13622	25	1
0	13623	25	2
0	13624	25	1
0	13625	25	0
0	13658	25.05	1
0	13659	25.05	2
0	13660	25.05	1
0	13661	25.05	0
0	13678	25.1	1
0	13679	25.1	2
0	13680	25.1	1
0	13681	25.1	0
0	13683	25.1	1
0	13684	25.1	2
0	13685	25.1	1
0	13686	25.1	0
0	13709	25.15	1
0	13710	25.15	2
0	13711	25.15	1
0	13712	25.15	0
0	13725	25.2	1
0	13726	25.2	2
0	13727	25.2	1
0	13728	25.2	0
0	13730	25.2	1
0	13731	25.2	2
0	13732	25.2	1
0	13733	25.2	0
0	13752	25.25	1
0	13753	25.25	2
0	13754	25.25	1
0	13755	25.25	0
0	13768	25.3	1
0	13769	25.3	2
0	13770	25.3	1
0	13771	25.3	0
0	13773	25.3	1
0	13774	25.3	2
0	13775	25.3	1
0	13776	25.3	0
0	13795	25.35	1
0	13796	25.35	2
0	13797	25.35	1
0	13798	25.35	0
0	13811	25.4	1
0	13812	25.4	2
0	13813	25.4	1
0	13814	25.4	0
0	13816	25.4	1
0	13817	25.4	2
0	13818	25.4	1
0	13819	25.4	0
0	13852	25.45	1
0	13853	25.45	2
0	13854	25.45	1
0	13855	25.45	0
0	13868	25.5	1
0	13869	25.5	2
0	13870	25.5	1
0	13871	25.5	0
0	13873	25.5	1
0	13874	25.5	2
0	13875	25.5	1
0	13876	25.5	0
0	13895	25.55	1
0	13896	25.55	2
0	13897	25.55	1
0	13898	25.55	0
0	13937	25.6	1
0	13938	25.6	2
0	13939	25.6	1
0	13940	25.6	0
0	13942	25.6	1
0	13943	25.6	2
0	13944	25.6	1
0	13945	25.6	0
0	13964	25.65	1
0	13965	25.65	2
0	13966	25.65	1
0	13967	25.65	0
0	13980	25.7	1
0	13981	25.7	2
0	13982	25.7	1
0	13983	25.7	0
0	13985	25.7	1
0	13986	25.7	2
0	13987	25.7	1
0	13988	25.7	0
0	14007	25.75	1
0	14008	25.75	2
0	14009	25.75	1
0	14010	25.75	0
0	14023	25.8	1
0	14024	25.8	2
0	14025	25.8	1
0	14026	25.8	0
0	14028	25.8	1
0	14029	25.8	2
0	14030	25.8	1
0	14031	25.8	0
0	14050	25.85	1
0	14051	25.85	2
0	14052	25.85	1
0	14053	25.85	0
0	14066	25.9	1
0	14067	25.9	2
0	14068	25.9	1
0	14069	25.9	0
0	14071	25.9	1
0	14072	25.9	2
0	14073	25.9	1
0	14074	25.9	0
0	14093	25.95	1
0	14094	25.95	2
0	14095	25.95	1
0	14096	25.95	0
0	14123	26	1
0	14124	26	2
0	14125	26	1
0	14126	26	0
0	14128	26	1
0	14129	26	2
0	14130	26	1
0	14131	26	0
0	14150	26.05	1
0	14151	26.05	2
0	14152	26.05	1
0	14153	26.05	0
0	14170	26.1	1
0	14171	26.1	2
0	14172	26.1	1
0	14173	26.1	0
0	14175	26.1	1
0	14176	26.1	2
0	14177	26.1	1
0	14178	26.1	0
0	14227	26.15	1
0	14228	26.15	2
0	14229	26.15	1
0	14230	26.15	0
0	14243	26.2	1
0	14244	26.2	2
0	14245	26.2	1
0	14246	26.2	0
0	14248	26.2	1
0	14249	26.2	2
0	14250	26.2	1
0	14251	26.2	0
0	14270	26.25	1
0	14271	26.25	2
0	14272	26.25	1
0	14273	26.25	0
0	14296	26.3	1
0	14297	26.3	2
0	14298	26.3	1
0	14299	26.3	0
0	14301	26.3	1
0	14302	26.3	2
0	14303	26.3	1
0	14304	26.3	0
0	14323	26.35	1
0	14324	26.35	2
0	14325	26.35	1
0	14326	26.35	0
0	14339	26.4	1
0	14340	26.4	2
0	14341	26.4	1
0	14342	26.4	0
0	14344	26.4	1
0	14345	26.4	2
0	14346	26.4	1
0	14347	26.4	0
0	14380	26.45	1
0	14381	26.45	2
0	14382	26.45	1
0	14383	26.45	0
0	14396	26.5	1
0	14397	26.5	2
0	14398	26.5	1
0	14399	26.5	0
0	14401	26.5	1
0	14402	26.5	2
0	14403	26.5	1
0	14404	26.5	0
0	14437	26.55	1
0	14438	26.55	2
0	14439	26.55	1
0	14440	26.55	0
0	14453	26.6	1
0	14454	26.6	2
0	14455	26.6	1
0	14456	26.6	0
0	14458	26.6	1
0	14459	26.6	2
0	14460	26.6	1
0	14461	26.6	0
0	14480	26.65	1
0	14481	26.65	2
0	14482	26.65	1
0	14483	26.65	0
0	14506	26.7	1
0	14507	26.7	2
0	14508	26.7	1
0	14509	26.7	0
0	14511	26.7	1
0	14512	26.7	2
0	14513	26.7	1
0	14514	26.7	0
0	14533	26.75	1
0	14534	26.75	2
0	14535	26.75	1
0	14536	26.75	0
0	14549	26.8	1
0	14550	26.8	2
0	14551	26.8	1
0	14552	26.8	0
0	14554	26.8	1
0	14555	26.8	2
0	14556	26.8	1
0	14557	26.8	0
0	14586	26.85	1
0	14587	26.85	2
0	14588	26.85	1
0	14589	26.85	0
0	14602	26.9	1
0	14603	26.9	2
0	14604	26.9	1
0	14605	26.9	0
0	14607	26.9	1
0	14608	26.9	2
0	14609	26.9	1
0	14610	26.9	0
0	14629	26.95	1
0	14630	26.95	2
0	14631	26.95	1
0	14632	26.95	0
0	14662	27	1
0	14663	27	2
0	14664	27	1
0	14665	27	0
0	14667	27	1
0	14668	27	2
0	14669	27	1
0	14670	27	0
0	14689	27.05	1
0	14690	27.05	2
0	14691	27.05	1
0	14692	27.05	0
0	14719	27.1	1
0	14720	27.1	2
0	14721	27.1	1
0	14722	27.1	0
0	14724	27.1	1
0	14725	27.1	2
0	14726	27.1	1
0	14727	27.1	0
0	14750	27.15	1
0	14751	27.15	2
0	14752	27.15	1
0	14753	27.15	0
0	14766	27.2	1
0	14767	27.2	2
0	14768	27.2	1
0	14769	27.2	0
0	14771	27.2	1
0	14772	27.2	2
0	14773	27.2	1
0	14774	27.2	0
0	14819	27.25	1
0	14820	27.25	2
0	14821	27.25	1
0	14822	27.25	0
0	14835	27.3	1
0	14836	27.3	2
0	14837	27.3	1
0	14838	27.3	0
0	14840	27.3	1
0	14841	27.3	2
0	14842	27.3	1
0	14843	27.3	0
0	14862	27.35	1
0	14863	27.35	2
0	14864	27.35	1
0	14865	27.35	0
0	14918	27.4	1
0	14919	27.4	2
0	14920	27.4	1
0	14921	27.4	0
0	14923	27.4	1
0	14924	27.4	2
0	14925	27.4	1
0	14926	27.4	0
0	14955	27.45	1
0	14956	27.45	2
0	14957	27.45	1
0	14958	27.45	0
0	14971	27.5	1
0	14972	27.5	2
0	14973	27.5	1
0	14974	27.5	0
0	14976	27.5	1
0	14977	27.5	2
0	14978	27.5	1
0	14979	27.5	0
0	15012	27.55	1
0	15013	27.55	2
0	15014	27.55	1
0	15015	27.55	0
0	15028	27.6	1
0	15029	27.6	2
0	15030	27.6	1
0	15031	27.6	0
0	15033	27.6	1
0	15034	27.6	2
0	15035	27.6	1
0	15036	27.6	0
0	15069	27.65	1
0	15070	27.65	2
0	15071	27.65	1
0	15072	27.65	0
0	15085	27.7	1
0	15086	27.7	2
0	15087	27.7	1
0	15088	27.7	0
0	15090	27.7	1
0	15091	27.7	2
0	15092	27.7	1
0	15093	27.7	0
0	15112	27.75	1
0	15113	27.75	2
0	15114	27.75	1
0	15115	27.75	0
0	15138	27.8	1
0	15139	27.8	2
0	15140	27.8	1
0	15141	27.8	0
0	15143	27.8	1
0	15144	27.8	2
0	15145	27.8	1
0	15146	27.8	0
0	15165	27.85	1
0	15166	27.85	2
0	15167	27.85	1
0	15168	27.85	0
0	15181	27.9	1
0	15182	27.9	2
0	15183	27.9	1
0	15184	27.9	0
0	15186	27.9	1
0	15187	27.9	2
0	15188	27.9	1
0	15189	27.9	0
0	15211	27.95	1
0	15212	27.95	2
0	15213	27.95	1
0	15214	27.95	0
0	15227	28	1
0	15228	28	2
0	15229	28	1
0	15230	28	0
0	15232	28	1
0	15233	28	2
0	15234	28	1
0	15235	28	0
0	15254	28.05	1
0	15255	28.05	2
0	15256	28.05	1
0	15257	28.05	0
0	15274	28.1	1
0	15275	28.1	2
0	15276	28.1	1
0	15277	28.1	0
0	15279	28.1	1
0	15280	28.1	2
0	15281	28.1	1
0	15282	28.1	0
0	15305	28.15	1
0	15306	28.15	2
0	15307	28.15	1
0	15308	28.15	0
0	15335	28.2	1
0	15336	28.2	2
0	15337	28.2	1
0	15338	28.2	0
0	15340	28.2	1
0	15341	28.2	2
0	15342	28.2	1
0	15343	28.2	0
0	15362	28.25	1
0	15363	28.25	2
0	15364	28.25	2
0	15365	28.25	1
0	15378	28.3	1
0	15379	28.3	2
0	15380	28.3	2
0	15381	28.3	1
0	15383	28.3	1
0	15384	28.3	2
0	15385	28.3	2
0	15386	28.3	1
0	15433	28.35	1
0	15434	28.35	2
0	15435	28.35	2
0	15436	28.35	1
0	15449	28.4	1
0	15450	28.4	2
0	15451	28.4	2
0	15452	28.4	1
0	15454	28.4	1
0	15455	28.4	2
0	15456	28.4	2
0	15457	28.4	1
0	15478	28.45	1
0	15479	28.45	2
0	15480	28.45	2
0	15481	28.45	1
0	15494	28.5	1
0	15495	28.5	2
0	15496	28.5	2
0	15497	28.5	1
0	15499	28.5	1
0	15500	28.5	2
0	15501	28.5	2
0	15502	28.5	1
0	15523	28.55	1
0	15524	28.55	2
0	15525	28.55	2
0	15526	28.55	1
0	15539	28.6	1
0	15540	28.6	2
0	15541	28.6	2
0	15542	28.6	1
0	15544	28.6	1
0	15545	28.6	2
0	15546	28.6	2
0	15547	28.6	1
0	15568	28.65	1
0	15569	28.65	2
0	15570	28.65	2
0	15571	28.65	1
0	15584	28.7	1
0	15585	28.7	2
0	15586	28.7	2
0	15587	28.7	1
0	15589	28.7	1
0	15590	28.7	2
0	15591	28.7	2
0	15592	28.7	1
0	15627	28.75	1
0	15628	28.75	2
0	15629	28.75	2
0	15630	28.75	1
0	15643	28.8	1
0	15644	28.8	2
0	15645	28.8	2
0	15646	28.8	1
0	15648	28.8	1
0	15649	28.8	2
0	15650	28.8	2
0	15651	28.8	1
0	15672	28.85	1
0	15673	28.85	2
0	15674	28.85	2
0	15675	28.85	1
0	15702	28.9	1
0	15703	28.9	2
0	15704	28.9	2
0	15705	28.9	1
0	15707	28.9	1
0	15708	28.9	2
0	15709	28.9	2
0	15710	28.9	1
0	15731	28.95	1
0	15732	28.95	2
0	15733	28.95	2
0	15734	28.95	1
0	15747	29	1
0	15748	29	2
0	15749	29	2
0	15750	29	1
0	15752	29	1
0	15753	29	2
0	15754	29	2
0	15755	29	1
0	15776	29.05	1
0	15777	29.05	2
0	15778	29.05	2
0	15779	29.05	1
0	15796	29.1	1
0	15797	29.1	2
0	15798	29.1	2
0	15799	29.1	1
0	15801	29.1	1
0	15802	29.1	2
0	15803	29.1	2
0	15804	29.1	1
0	15843	29.15	1
0	15844	29.15	2
0	15845	29.15	2
0	15846	29.15	1
0	15859	29.2	1
0	15860	29.2	2
0	15861	29.2	2
0	15862	29.2	1
0	15864	29.2	1
0	15865	29.2	2
0	15866	29.2	2
0	15867	29.2	1
0	15888	29.25	1
0	15889	29.25	2
0	15890	29.25	2
0	15891	29.25	1
0	15956	29.3	1
0	15957	29.3	2
0	15958	29.3	2
0	15959	29.3	1
0	15961	29.3	1
0	15962	29.3	2
0	15963	29.3	2
0	15964	29.3	1
0	15991	29.35	1
0	15992	29.35	2
0	15993	29.35	2
0	15994	29.35	1
0	16007	29.4	1
0	16008	29.4	2
0	16009	29.4	2
0	16010	29.4	1
0	16012	29.4	1
0	16013	29.4	2
0	16014	29.4	2
0	16015	29.4	1
0	16062	29.45	1
0	16063	29.45	2
0	16064	29.45	2
0	16065	29.45	1
0	16078	29.5	1
0	16079	29.5	2
0	16080	29.5	2
0	16081	29.5	1
0	16083	29.5	1
0	16084	29.5	2
0	16085	29.5	2
0	16086	29.5	1
0	16107	29.55	1
0	16108	29.55	2
0	16109	29.55	2
0	16110	29.55	1
0	16123	29.6	1
0	16124	29.6	2
0	16125	29.6	2
0	16126	29.6	1
0	16128	29.6	1
0	16129	29.6	2
0	16130	29.6	2
0	16131	29.6	1
0	16152	29.65	1
0	16153	29.65	2
0	16154	29.65	2
0	16155	29.65	1
0	16182	29.7	1
0	16183	29.7	2
0	16184	29.7	2
0	16185	29.7	1
0	16187	29.7	1
0	16188	29.7	2
0	16189	29.7	2
0	16190	29.7	1
0	16211	29.75	1
0	16212	29.75	2
0	16213	29.75	2
0	16214	29.75	1
0	16227	29.8	1
0	16228	29.8	2
0	16229	29.8	2
0	16230	29.8	1
0	16232	29.8	1
0	16233	29.8	2
0	16234	29.8	2
0	16235	29.8	1
0	16284	29.85	1
0	16285	29.85	2
0	16286	29.85	2
0	16287	29.85	1
0	16300	29.9	1
0	16301	29.9	2
0	16302	29.9	2
0	16303	29.9	1
0	16305	29.9	1
0	16306	29.9	2
0	16307	29.9	2
0	16308	29.9	1
0	16329	29.95	1
0	16330	29.95	2
0	16331	29.95	2
0	16332	29.95	1
0	16360	30	1
0	16361	30	2
0	16362	30	2
0	16363	30	1
0	16365	30	1
0	16366	30	2
0	16367	30	2
0	16368	30	1
0	16389	30.05	1
0	16390	30.05	2
0	16391	30.05	2
0	16392	30.05	1
0	16409	30.1	1
0	16410	30.1	2
0	16411	30.1	2
0	16412	30.1	1
0	16414	30.1	1
0	16415	30.1	2
0	16416	30.1	2
0	16417	30.1	1
0	16442	30.15	1
0	16443	30.15	2
0	16444	30.15	2
0	16445	30.15	1
0	16458	30.2	1
0	16459	30.2	2
0	16460	30.2	2
0	16461	30.2	1
0	16463	30.2	1
0	16464	30.2	2
0	16465	30.2	2
0	16466	30.2	1
0	16490	30.25	1
0	16491	30.25	2
0	16492	30.25	2
0	16493	30.25	1
0	16506	30.3	1
0	16507	30.3	2
0	16508	30.3	2
0	16509	30.3	1
0	16511	30.3	1
0	16512	30.3	2
0	16513	30.3	2
0	16514	30.3	1
0	16535	30.35	1
0	16536	30.35	2
0	16537	30.35	2
0	16538	30.35	1
0	16565	30.4	1
0	16566	30.4	2
0	16567	30.4	2
0	16568	30.4	1
0	16570	30.4	1
0	16571	30.4	2
0	16572	30.4	2
0	16573	30.4	1
0	16594	30.45	1
0	16595	30.45	2
0	16596	30.45	2
0	16597	30.45	1
0	16610	30.5	1
0	16611	30.5	2
0	16612	30.5	2
0	16613	30.5	1
0	16615	30.5	1
0	16616	30.5	2
0	16617	30.5	2
0	16618	30.5	1
0	16665	30.55	1
0	16666	30.55	2
0	16667	30.55	2
0	16668	30.55	1
0	16681	30.6	1
0	16682	30.6	2
0	16683	30.6	2
0	16684	30.6	1
0	16686	30.6	1
0	16687	30.6	2
0	16688	30.6	2
0	16689	30.6	1
0	16710	30.65	1
0	16711	30.65	2
0	16712	30.65	2
0	16713	30.65	1
0	16726	30.7	1
0	16727	30.7	2
0	16728	30.7	2
0	16729	30.7	1
0	16731	30.7	1
0	16732	30.7	2
0	16733	30.7	2
0	16734	30.7	1
0	16755	30.75	1
0	16756	30.75	2
0	16757	30.75	2
0	16758	30.75	1
0	16771	30.8	1
0	16772	30.8	2
0	16773	30.8	2
0	16774	30.8	1
0	16776	30.8	1
0	16777	30.8	2
0	16778	30.8	2
0	16779	30.8	1
0	16800	30.85	1
0	16801	30.85	2
0	16802	30.85	2
0	16803	30.85	1
0	16816	30.9	1
0	16817	30.9	2
0	16818	30.9	2
0	16819	30.9	1
0	16821	30.9	1
0	16822	30.9	2
0	16823	30.9	2
0	16824	30.9	1
0	16872	30.95	1
0	16873	30.95	2
0	16874	30.95	2
0	16875	30.95	1
0	16888	31	1
0	16889	31	2
0	16890	31	2
0	16891	31	1
0	16893	31	1
0	16894	31	2
0	16895	31	2
0	16896	31	1
0	16917	31.05	1
0	16918	31.05	2
0	16919	31.05	2
0	16920	31.05	1
0	16951	31.1	1
0	16952	31.1	2
0	16953	31.1	2
0	16954	31.1	1
0	16956	31.1	1
0	16957	31.1	2
0	16958	31.1	2
0	16959	31.1	1
0	16984	31.15	1
0	16985	31.15	2
0	16986	31.15	2
0	16987	31.15	1
0	17000	31.2	1
0	17001	31.2	2
0	17002	31.2	2
0	17003	31.2	1
0	17005	31.2	1
0	17006	31.2	2
0	17007	31.2	2
0	17008	31.2	1
0	17029	31.25	1
0	17030	31.25	2
0	17031	31.25	2
0	17032	31.25	1
0	17045	31.3	1
0	17046	31.3	2
0	17047	31.3	2
0	17048	31.3	1
0	17050	31.3	1
0	17051	31.3	2
0	17052	31.3	2
0	17053	31.3	1
0	17074	31.35	1
0	17075	31.35	2
0	17076	31.35	2
0	17077	31.35	1
0	17090	31.4	1
0	17091	31.4	2
0	17092	31.4	2
0	17093	31.4	1
0	17095	31.4	1
0	17096	31.4	2
0	17097	31.4	2
0	17098	31.4	1
0	17133	31.45	1
0	17134	31.45	2
0	17135	31.45	2
0	17136	31.45	1
0	17166	31.5	1
0	17167	31.5	2
0	17168	31.5	2
0	17169	31.5	1
0	17171	31.5	1
0	17172	31.5	2
0	17173	31.5	2
0	17174	31.5	1
0	17195	31.55	1
0	17196	31.55	2
0	17197	31.55	2
0	17198	31.55	1
0	17214	31.6	1
0	17215	31.6	2
0	17216	31.6	2
0	17217	31.6	1
0	17219	31.6	1
0	17220	31.6	2
0	17221	31.6	2
0	17222	31.6	1
0	17253	31.65	1
0	17254	31.65	2
0	17255	31.65	2
0	17256	31.65	1
0	17269	31.7	1
0	17270	31.7	2
0	17271	31.7	2
0	17272	31.7	1
0	17274	31.7	1
0	17275	31.7	2
0	17276	31.7	2
0	17277	31.7	1
0	17298	31.75	1
0	17299	31.75	2
0	17300	31.75	2
0	17301	31.75	1
0	17314	31.8	1
0	17315	31.8	2
0	17316	31.8	2
0	17317	31.8	1
0	17319	31.8	1
0	17320	31.8	2
0	17321	31.8	2
0	17322	31.8	1
0	17343	31.85	1
0	17344	31.85	2
0	17345	31.85	2
0	17346	31.85	1
0	17359	31.9	1
0	17360	31.9	2
0	17361	31.9	2
0	17362	31.9	1
0	17364	31.9	1
0	17365	31.9	2
0	17366	31.9	2
0	17367	31.9	1
0	17388	31.95	1
0	17389	31.95	2
0	17390	31.95	2
0	17391	31.95	1
0	17407	32	1
0	17408	32	2
0	17409	32	2
0	17410	32	1
0	17412	32	1
0	17413	32	2
0	17414	32	2
0	17415	32	1
0	17450	32.05	1
0	17451	32.05	2
0	17452	32.05	2
0	17453	32.05	1
0	17470	32.1	1
0	17471	32.1	2
0	17472	32.1	2
0	17473	32.1	1
0	17475	32.1	1
0	17476	32.1	2
0	17477	32.1	2
0	17478	32.1	1
0	17503	32.15	1
0	17504	32.15	2
0	17505	32.15	2
0	17506	32.15	1
0	17557	32.2	1
0	17558	32.2	2
0	17559	32.2	2
0	17560	32.2	1
0	17562	32.2	1
0	17563	32.2	2
0	17564	32.2	2
0	17565	32.2	1
0	17586	32.25	1
0	17587	32.25	2
0	17588	32.25	2
0	17589	32.25	1
0	17602	32.3	1
0	17603	32.3	2
0	17604	32.3	2
0	17605	32.3	1
0	17607	32.3	1
0	17608	32.3	2
0	17609	32.3	2
0	17610	32.3	1
0	17631	32.35	1
0	17632	32.35	2
0	17633	32.35	2
0	17634	32.35	1
0	17647	32.4	1
0	17648	32.4	2
0	17649	32.4	2
0	17650	32.4	1
0	17652	32.4	1
0	17653	32.4	2
0	17654	32.4	2
0	17655	32.4	1
0	17676	32.45	1
0	17677	32.45	2
0	17678	32.45	2
0	17679	32.45	1
0	17692	32.5	1
0	17693	32.5	2
0	17694	32.5	2
0	17695	32.5	1
0	17697	32.5	1
0	17698	32.5	2
0	17699	32.5	2
0	17700	32.5	1
0	17724	32.55	1
0	17725	32.55	2
0	17726	32.55	2
0	17727	32.55	1
0	17754	32.6	1
0	17755	32.6	2
0	17756	32.6	2
0	17757	32.6	1
0	17759	32.6	1
0	17760	32.6	2
0	17761	32.6	2
0	17762	32.6	1
0	17783	32.65	1
0	17784	32.65	2
0	17785	32.65	2
0	17786	32.65	1
0	17799	32.7	1
0	17800	32.7	2
0	17801	32.7	2
0	17802	32.7	1
0	17804	32.7	1
0	17805	32.7	2
0	17806	32.7	2
0	17807	32.7	1
0	17842	32.75	1
0	17843	32.75	2
0	17844	32.75	2
0	17845	32.75	1
0	17858	32.8	1
0	17859	32.8	2
0	17860	32.8	2
0	17861	32.8	1
0	17863	32.8	1
0	17864	32.8	2
0	17865	32.8	2
0	17866	32.8	1
0	17887	32.85	1
0	17888	32.85	2
0	17889	32.85	2
0	17890	32.85	1
0	17903	32.9	1
0	17904	32.9	2
0	17905	32.9	2
0	17906	32.9	1
0	17908	32.9	1
0	17909	32.9	2
0	17910	32.9	2
0	17911	32.9	1
0	17932	32.95	1
0	17933	32.95	2
0	17934	32.95	2
0	17935	32.95	1
0	17948	33	1
0	17949	33	2
0	17950	33	2
0	17951	33	1
0	17953	33	1
0	17954	33	2
0	17955	33	2
0	17956	33	1
0	17991	33.05	1
0	17992	33.05	2
0	17993	33.05	2
0	17994	33.05	1
0	18021	33.1	1
0	18022	33.1	2
0	18023	33.1	2
0	18024	33.1	1
0	18026	33.1	1
0	18027	33.1	2
0	18028	33.1	2
0	18029	33.1	1
0	18068	33.15	1
0	18069	33.15	2
0	18070	33.15	2
0	18071	33.15	1
0	18087	33.2	1
0	18088	33.2	2
0	18089	33.2	2
0	18090	33.2	1
0	18092	33.2	1
0	18093	33.2	2
0	18094	33.2	2
0	18095	33.2	1
0	18130	33.25	1
0	18131	33.25	2
0	18132	33.25	2
0	18133	33.25	1
0	18172	33.3	1
0	18173	33.3	2
0	18174	33.3	2
0	18175	33.3	1
0	18177	33.3	1
0	18178	33.3	2
0	18179	33.3	2
0	18180	33.3	1
0	18201	33.35	1
0	18202	33.35	2
0	18203	33.35	2
0	18204	33.35	1
0	18217	33.4	1
0	18218	33.4	2
0	18219	33.4	2
0	18220	33.4	1
0	18222	33.4	1
0	18223	33.4	2
0	18224	33.4	2
0	18225	33.4	1
0	18246	33.45	1
0	18247	33.45	2
0	18248	33.45	2
0	18249	33.45	1
0	18262	33.5	1
0	18263	33.5	2
0	18264	33.5	2
0	18265	33.5	1
0	18267	33.5	1
0	18268	33.5	2
0	18269	33.5	2
0	18270	33.5	1
0	18291	33.55	1
0	18292	33.55	2
0	18293	33.55	2
0	18294	33.55	1
0	18307	33.6	1
0	18308	33.6	2
0	18309	33.6	2
0	18310	33.6	1
0	18312	33.6	1
0	18313	33.6	2
0	18314	33.6	2
0	18315	33.6	1
0	18339	33.65	1
0	18340	33.65	2
0	18341	33.65	2
0	18342	33.65	1
0	18369	33.7	1
0	18370	33.7	2
0	18371	33.7	2
0	18372	33.7	1
0	18374	33.7	1
0	18375	33.7	2
0	18376	33.7	2
0	18377	33.7	1
0	18398	33.75	1
0	18399	33.75	2
0	18400	33.75	2
0	18401	33.75	1
0	18414	33.8	1
0	18415	33.8	2
0	18416	33.8	2
0	18417	33.8	1
0	18419	33.8	1
0	18420	33.8	2
0	18421	33.8	2
0	18422	33.8	1
0	18457	33.85	1
0	18458	33.85	2
0	18459	33.85	2
0	18460	33.85	1
0	18473	33.9	1
0	18474	33.9	2
0	18475	33.9	2
0	18476	33.9	1
0	18478	33.9	1
0	18479	33.9	2
0	18480	33.9	2
0	18481	33.9	1
0	18502	33.95	1
0	18503	33.95	2
0	18504	33.95	2
0	18505	33.95	1
0	18518	34	1
0	18519	34	2
0	18520	34	2
0	18521	34	1
0	18523	34	1
0	18524	34	2
0	18525	34	2
0	18526	34	1
0	18547	34.05	1
0	18548	34.05	2
0	18549	34.05	2
0	18550	34.05	1
0	18567	34.1	1
0	18568	34.1	2
0	18569	34.1	2
0	18570	34.1	1
0	18572	34.1	1
0	18573	34.1	2
0	18574	34.1	2
0	18575	34.1	1
0	18600	34.15	1
0	18601	34.15	2
0	18602	34.15	2
0	18603	34.15	1
0	18616	34.2	1
0	18617	34.2	2
0	18618	34.2	2
0	18619	34.2	1
0	18621	34.2	1
0	18622	34.2	2
0	18623	34.2	2
0	18624	34.2	1
0	18659	34.25	1
0	18660	34.25	2
0	18661	34.25	2
0	18662	34.25	1
0	18675	34.3	1
0	18676	34.3	2
0	18677	34.3	2
0	18678	34.3	1
0	18680	34.3	1
0	18681	34.3	2
0	18682	34.3	2
0	18683	34.3	1
0	18704	34.35	1
0	18705	34.35	2
0	18706	34.35	2
0	18707	34.35	1
0	18746	34.4	1
0	18747	34.4	2
0	18748	34.4	2
0	18749	34.4	1
0	18751	34.4	1
0	18752	34.4	2
0	18753	34.4	2
0	18754	34.4	1
0	18775	34.45	1
0	18776	34.45	2
0	18777	34.45	2
0	18778	34.45	1
0	18791	34.5	1
0	18792	34.5	2
0	18793	34.5	2
0	18794	34.5	1
0	18796	34.5	1
0	18797	34.5	2
0	18798	34.5	2
0	18799	34.5	1
0	18820	34.55	1
0	18821	34.55	2
0	18822	34.55	2
0	18823	34.55	1
0	18836	34.6	1
0	18837	34.6	2
0	18838	34.6	2
0	18839	34.6	1
0	18841	34.6	1
0	18842	34.6	2
0	18843	34.6	2
0	18844	34.6	1
0	18875	34.65	1
0	18876	34.65	2
0	18877	34.65	2
0	18878	34.65	1
0	18891	34.7	1
0	18892	34.7	2
0	18893	34.7	2
0	18894	34.7	1
0	18896	34.7	1
0	18897	34.7	2
0	18898	34.7	2
0	18899	34.7	1
0	18920	34.75	1
0	18921	34.75	2
0	18922	34.75	2
0	18923	34.75	1
0	18953	34.8	1
0	18954	34.8	2
0	18955	34.8	2
0	18956	34.8	1
0	18958	34.8	1
0	18959	34.8	2
0	18960	34.8	2
0	18961	34.8	1
0	18985	34.85	1
0	18986	34.85	2
0	18987	34.85	2
0	18988	34.85	1
0	19001	34.9	1
0	19002	34.9	2
0	19003	34.9	2
0	19004	34.9	1
0	19006	34.9	1
0	19007	34.9	2
0	19008	34.9	2
0	19009	34.9	1
0	19044	34.95	1
0	19045	34.95	2
0	19046	34.95	2
0	19047	34.95	1
0	19061	35	1
0	19062	35	2
0	19063	35	2
0	19064	35	1
0	19066	35	1
0	19067	35	2
0	19068	35	2
0	19069	35	1
0	19090	35.05	1
0	19091	35.05	2
0	19092	35.05	2
0	19093	35.05	1
0	19110	35.1	1
0	19111	35.1	2
0	19112	35.1	2
0	19113	35.1	1
0	19115	35.1	1
0	19116	35.1	2
0	19117	35.1	2
0	19118	35.1	1
0	19143	35.15	1
0	19144	35.15	2
0	19145	35.15	2
0	19146	35.15	1
0	19159	35.2	1
0	19160	35.2	2
0	19161	35.2	2
0	19162	35.2	1
0	19164	35.2	1
0	19165	35.2	2
0	19166	35.2	2
0	19167	35.2	1
0	19202	35.25	1
0	19203	35.25	2
0	19204	35.25	2
0	19205	35.25	1
0	19218	35.3	1
0	19219	35.3	2
0	19220	35.3	2
0	19221	35.3	1
0	19223	35.3	1
0	19224	35.3	2
0	19225	35.3	2
0	19226	35.3	1
0	19261	35.35	1
0	19262	35.35	2
0	19263	35.35	2
0	19264	35.35	1
0	19300	35.4	1
0	19301	35.4	2
0	19302	35.4	2
0	19303	35.4	1
0	19305	35.4	1
0	19306	35.4	2
0	19307	35.4	2
0	19308	35.4	1
0	19329	35.45	1
0	19330	35.45	2
0	19331	35.45	2
0	19332	35.45	1
0	19371	35.5	1
0	19372	35.5	2
0	19373	35.5	2
0	19374	35.5	1
0	19376	35.5	1
0	19377	35.5	2
0	19378	35.5	2
0	19379	35.5	1
0	19400	35.55	1
0	19401	35.55	2
0	19402	35.55	2
0	19403	35.55	1
0	19416	35.6	1
0	19417	35.6	2
0	19418	35.6	2
0	19419	35.6	1
0	19421	35.6	1
0	19422	35.6	2
0	19423	35.6	2
0	19424	35.6	1
0	19445	35.65	1
0	19446	35.65	2
0	19447	35.65	2
0	19448	35.65	1
0	19461	35.7	1
0	19462	35.7	2
0	19463	35.7	2
0	19464	35.7	1
0	19466	35.7	1
0	19467	35.7	2
0	19468	35.7	2
0	19469	35.7	1
0	19490	35.75	1
0	19491	35.75	2
0	19492	35.75	2
0	19493	35.75	1
0	19520	35.8	1
0	19521	35.8	2
0	19522	35.8	2
0	19523	35.8	1
0	19525	35.8	1
0	19526	35.8	2
0	19527	35.8	2
0	19528	35.8	1
0	19549	35.85	1
0	19550	35.85	2
0	19551	35.85	2
0	19552	35.85	1
0	19579	35.9	1
0	19580	35.9	2
0	19581	35.9	2
0	19582	35.9	1
0	19584	35.9	1
0	19585	35.9	2
0	19586	35.9	2
0	19587	35.9	1
0	19631	35.95	1
0	19632	35.95	2
0	19633	35.95	2
0	19634	35.95	1
0	19647	36	1
0	19648	36	2
0	19649	36	2
0	19650	36	1
0	19652	36	1
0	19653	36	2
0	19654	36	2
0	19655	36	1
0	19690	36.05	1
0	19691	36.05	2
0	19692	36.05	2
0	19693	36.05	1
0	19710	36.1	1
0	19711	36.1	2
0	19712	36.1	2
0	19713	36.1	1
0	19715	36.1	1
0	19716	36.1	2
0	19717	36.1	2
0	19718	36.1	1
0	19743	36.15	1
0	19744	36.15	2
0	19745	36.15	2
0	19746	36.15	1
0	19759	36.2	1
0	19760	36.2	2
0	19761	36.2	2
0	19762	36.2	1
0	19764	36.2	1
0	19765	36.2	2
0	19766	36.2	2
0	19767	36.2	1
0	19791	36.25	1
0	19792	36.25	1
0	19793	36.25	1
0	19794	36.25	1
0	19807	36.3	1
0	19808	36.3	1
0	19809	36.3	1
0	19810	36.3	1
0	19812	36.3	1
0	19813	36.3	1
0	19814	36.3	1
0	19815	36.3	1
0	19846	36.35	1
0	19847	36.35	1
0	19848	36.35	1
0	19849	36.35	1
0	19862	36.4	1
0	19863	36.4	1
0	19864	36.4	1
0	19865	36.4	1
0	19867	36.4	1
0	19868	36.4	1
0	19869	36.4	1
0	19870	36.4	1
0	19905	36.45	1
0	19906	36.45	1
0	19907	36.45	1
0	19908	36.45	1
0	19959	36.5	1
0	19960	36.5	1
0	19961	36.5	1
0	19962	36.5	1
0	19964	36.5	1
0	19965	36.5	1
0	19966	36.5	1
0	19967	36.5	1
0	19988	36.55	1
0	19989	36.55	1
0	19990	36.55	1
0	19991	36.55	1
0	20030	36.6	1
0	20031	36.6	1
0	20032	36.6	1
0	20033	36.6	1
0	20035	36.6	1
0	20036	36.6	1
0	20037	36.6	1
0	20038	36.6	1
0	20059	36.65	1
0	20060	36.65	1
0	20061	36.65	1
0	20062	36.65	1
0	20075	36.7	1
0	20076	36.7	1
0	20077	36.7	1
0	20078	36.7	1
0	20080	36.7	1
0	20081	36.7	1
0	20082	36.7	1
0	20083	36.7	1
0	20104	36.75	1
0	20105	36.75	1
0	20106	36.75	1
0	20107	36.75	1
0	20120	36.8	1
0	20121	36.8	1
0	20122	36.8	1
0	20123	36.8	1
0	20125	36.8	1
0	20126	36.8	1
0	20127	36.8	1
0	20128	36.8	1
0	20149	36.85	1
0	20150	36.85	1
0	20151	36.85	1
0	20152	36.85	1
0	20168	36.9	1
0	20169	36.9	1
0	20170	36.9	1
0	20171	36.9	1
0	20173	36.9	1
0	20174	36.9	1
0	20175	36.9	1
0	20176	36.9	1
0	20197	36.95	1
0	20198	36.95	1
0	20199	36.95	1
0	20200	36.95	1
0	20230	37	1
0	20231	37	1
0	20232	37	1
0	20233	37	1
0	20235	37	1
0	20236	37	1
0	20237	37	1
0	20238	37	1
0	20259	37.05	1
0	20260	37.05	1
0	20261	37.05	1
0	20262	37.05	1
0	20279	37.1	1
0	20280	37.1	1
0	20281	37.1	1
0	20282	37.1	1
0	20284	37.1	1
0	20285	37.1	1
0	20286	37.1	1
0	20287	37.1	1
0	20326	37.15	1
0	20327	37.15	1
0	20328	37.15	1
0	20329	37.15	1
0	20342	37.2	1
0	20343	37.2	1
0	20344	37.2	1
0	20345	37.2	1
0	20347	37.2	1
0	20348	37.2	1
0	20349	37.2	1
0	20350	37.2	1
0	20371	37.25	1
0	20372	37.25	1
0	20373	37.25	1
0	20374	37.25	1
0	20387	37.3	1
0	20388	37.3	1
0	20389	37.3	1
0	20390	37.3	1
0	20392	37.3	1
0	20393	37.3	1
0	20394	37.3	1
0	20395	37.3	1
0	20416	37.35	1
0	20417	37.35	1
0	20418	37.35	1
0	20419	37.35	1
0	20432	37.4	1
0	20433	37.4	1
0	20434	37.4	1
0	20435	37.4	1
0	20437	37.4	1
0	20438	37.4	1
0	20439	37.4	1
0	20440	37.4	1
0	20461	37.45	1
0	20462	37.45	1
0	20463	37.45	1
0	20464	37.45	1
0	20477	37.5	1
0	20478	37.5	1
0	20479	37.5	1
0	20480	37.5	1
0	20482	37.5	1
0	20483	37.5	1
0	20484	37.5	1
0	20485	37.5	1
0	20529	37.55	1
0	20530	37.55	1
0	20531	37.55	1
0	20532	37.55	1
0	20545	37.6	1
0	20546	37.6	1
0	20547	37.6	1
0	20548	37.6	1
0	20550	37.6	1
0	20551	37.6	1
0	20552	37.6	1
0	20553	37.6	1
0	20574	37.65	1
0	20575	37.65	1
0	20576	37.65	1
0	20577	37.65	1
0	20604	37.7	1
0	20605	37.7	1
0	20606	37.7	1
0	20607	37.7	1
0	20609	37.7	1
0	20610	37.7	1
0	20611	37.7	1
0	20612	37.7	1
0	20633	37.75	1
0	20634	37.75	1
0	20635	37.75	1
0	20636	37.75	1
0	20649	37.8	1
0	20650	37.8	1
0	20651	37.8	1
0	20652	37.8	1
0	20654	37.8	1
0	20655	37.8	1
0	20656	37.8	1
0	20657	37.8	1
0	20678	37.85	1
0	20679	37.85	1
0	20680	37.85	1
0	20681	37.85	1
0	20694	37.9	1
0	20695	37.9	1
0	20696	37.9	1
0	20697	37.9	1
0	20699	37.9	1
0	20700	37.9	1
0	20701	37.9	1
0	20702	37.9	1
0	20723	37.95	1
0	20724	37.95	1
0	20725	37.95	1
0	20726	37.95	1
0	20739	38	1
0	20740	38	1
0	20741	38	1
0	20742	38	1
0	20744	38	1
0	20745	38	1
0	20746	38	1
0	20747	38	1
0	20768	38.05	1
0	20769	38.05	1
0	20770	38.05	1
0	20771	38.05	1
0	20824	38.1	1
0	20825	38.1	1
0	20826	38.1	1
0	20827	38.1	1
0	20829	38.1	1
0	20830	38.1	1
0	20831	38.1	1
0	20832	38.1	1
0	20857	38.15	1
0	20858	38.15	1
0	20859	38.15	1
0	20860	38.15	1
0	20873	38.2	1
0	20874	38.2	1
0	20875	38.2	1
0	20876	38.2	1
0	20878	38.2	1
0	20879	38.2	1
0	20880	38.2	1
0	20881	38.2	1
0	20926	38.25	1
0	20927	38.25	1
0	20928	38.25	1
0	20929	38.25	1
0	20942	38.3	1
0	20943	38.3	1
0	20944	38.3	1
0	20945	38.3	1
0	20947	38.3	1
0	20948	38.3	1
0	20949	38.3	1
0	20950	38.3	1
0	20971	38.35	1
0	20972	38.35	1
0	20973	38.35	1
0	20974	38.35	1
0	20987	38.4	1
0	20988	38.4	1
0	20989	38.4	1
0	20990	38.4	1
0	20992	38.4	1
0	20993	38.4	1
0	20994	38.4	1
0	20995	38.4	1
0	21016	38.45	1
0	21017	38.45	1
0	21018	38.45	1
0	21019	38.45	1
0	21032	38.5	1
0	21033	38.5	1
0	21034	38.5	1
0	21035	38.5	1
0	21037	38.5	1
0	21038	38.5	1
0	21039	38.5	1
0	21040	38.5	1
0	21061	38.55	1
0	21062	38.55	1
0	21063	38.55	1
0	21064	38.55	1
0	21077	38.6	1
0	21078	38.6	1
0	21079	38.6	1
0	21080	38.6	1
0	21082	38.6	1
0	21083	38.6	1
0	21084	38.6	1
0	21085	38.6	1
0	21135	38.65	1
0	21136	38.65	1
0	21137	38.65	1
0	21138	38.65	1
0	21151	38.7	1
0	21152	38.7	1
0	21153	38.7	1
0	21154	38.7	1
0	21156	38.7	1
0	21157	38.7	1
0	21158	38.7	1
0	21159	38.7	1
0	21180	38.75	1
0	21181	38.75	1
0	21182	38.75	1
0	21183	38.75	1
0	21210	38.8	1
0	21211	38.8	1
0	21212	38.8	1
0	21213	38.8	1
0	21215	38.8	1
0	21216	38.8	1
0	21217	38.8	1
0	21218	38.8	1
0	21239	38.85	1
0	21240	38.85	1
0	21241	38.85	1
0	21242	38.85	1
0	21255	38.9	1
0	21256	38.9	1
0	21257	38.9	1
0	21258	38.9	1
0	21260	38.9	1
0	21261	38.9	1
0	21262	38.9	1
0	21263	38.9	1
0	21284	38.95	1
0	21285	38.95	1
0	21286	38.95	1
0	21287	38.95	1
0	21300	39	1
0	21301	39	1
0	21302	39	1
0	21303	39	1
0	21305	39	1
0	21306	39	1
0	21307	39	1
0	21308	39	1
0	21329	39.05	1
0	21330	39.05	1
0	21331	39.05	1
0	21332	39.05	1
0	21349	39.1	1
0	21350	39.1	1
0	21351	39.1	1
0	21352	39.1	1
0	21354	39.1	1
0	21355	39.1	1
0	21356	39.1	1
0	21357	39.1	1
0	21382	39.15	1
0	21383	39.15	1
0	21384	39.15	1
0	21385	39.15	1
0	21424	39.2	1
0	21425	39.2	1
0	21426	39.2	1
0	21427	39.2	1
0	21429	39.2	1
0	21430	39.2	1
0	21431	39.2	1
0	21432	39.2	1
0	21453	39.25	1
0	21454	39.25	1
0	21455	39.25	1
0	21456	39.25	1
0	21469	39.3	1
0	21470	39.3	1
0	21471	39.3	1
0	21472	39.3	1
0	21474	39.3	1
0	21475	39.3	1
0	21476	39.3	1
0	21477	39.3	1
0	21512	39.35	1
0	21513	39.35	1
0	21514	39.35	1
0	21515	39.35	1
0	21528	39.4	1
0	21529	39.4	1
0	21530	39.4	1
0	21531	39.4	1
0	21533	39.4	1
0	21534	39.4	1
0	21535	39.4	1
0	21536	39.4	1
0	21557	39.45	1
0	21558	39.45	1
0	21559	39.45	1
0	21560	39.45	1
0	21573	39.5	1
0	21574	39.5	1
0	21575	39.5	1
0	21576	39.5	1
0	21578	39.5	1
0	21579	39.5	1
0	21580	39.5	1
0	21581	39.5	1
0	21602	39.55	1
0	21603	39.55	1
0	21604	39.55	1
0	21605	39.55	1
0	21618	39.6	1
0	21619	39.6	1
0	21620	39.6	1
0	21621	39.6	1
0	21623	39.6	1
0	21624	39.6	1
0	21625	39.6	1
0	21626	39.6	1
0	21647	39.65	1
0	21648	39.65	1
0	21649	39.65	1
0	21650	39.65	1
0	21663	39.7	1
0	21664	39.7	1
0	21665	39.7	1
0	21666	39.7	1
0	21668	39.7	1
0	21669	39.7	1
0	21670	39.7	1
0	21671	39.7	1
0	21706	39.75	1
0	21707	39.75	1
0	21708	39.75	1
0	21709	39.75	1
0	21722	39.8	1
0	21723	39.8	1
0	21724	39.8	1
0	21725	39.8	1
0	21727	39.8	1
0	21728	39.8	1
0	21729	39.8	1
0	21730	39.8	1
0	21761	39.85	1
0	21762	39.85	1
0	21763	39.85	1
0	21764	39.85	1
0	21791	39.9	1
0	21792	39.9	1
0	21793	39.9	1
0	21794	39.9	1
0	21796	39.9	1
0	21797	39.9	1
0	21798	39.9	1
0	21799	39.9	1
0	21820	39.95	1
0	21821	39.95	1
0	21822	39.95	1
0	21823	39.95	1
0	21874	40	1
0	21875	40	1
0	21876	40	1
0	21877	40	1
0	21879	40	1
0	21880	40	1
0	21881	40	1
0	21882	40	1
0	21913	40.05	1
0	21914	40.05	1
0	21915	40.05	1
0	21916	40.05	1
0	21933	40.1	1
0	21934	40.1	1
0	21935	40.1	1
0	21936	40.1	1
0	21938	40.1	1
0	21939	40.1	1
0	21940	40.1	1
0	21941	40.1	1
0	21966	40.15	1
0	21967	40.15	1
0	21968	40.15	1
0	21969	40.15	1
0	21982	40.2	1
0	21983	40.2	1
0	21984	40.2	1
0	21985	40.2	1
0	21987	40.2	1
0	21988	40.2	1
0	21989	40.2	1
0	21990	40.2	1
0	22011	40.25	1
0	22012	40.25	1
0	22013	40.25	1
0	22014	40.25	1
0	22053	40.3	1
0	22054	40.3	1
0	22055	40.3	1
0	22056	40.3	1
0	22058	40.3	1
0	22059	40.3	1
0	22060	40.3	1
0	22061	40.3	1
0	22082	40.35	1
0	22083	40.35	1
0	22084	40.35	1
0	22085	40.35	1
0	22112	40.4	1
0	22113	40.4	1
0	22114	40.4	1
0	22115	40.4	1
0	22117	40.4	1
0	22118	40.4	1
0	22119	40.4	1
0	22120	40.4	1
0	22155	40.45	1
0	22156	40.45	1
0	22157	40.45	1
0	22158	40.45	1
0	22171	40.5	1
0	22172	40.5	1
0	22173	40.5	1
0	22174	40.5	1
0	22176	40.5	1
0	22177	40.5	1
0	22178	40.5	1
0	22179	40.5	1
0	22238	40.55	1
0	22239	40.55	1
0	22240	40.55	1
0	22241	40.55	1
0	22254	40.6	1
0	22255	40.6	1
0	22256	40.6	1
0	22257	40.6	1
0	22259	40.6	1
0	22260	40.6	1
0	22261	40.6	1
0	22262	40.6	1
0	22283	40.65	1
0	22284	40.65	1
0	22285	40.65	1
0	22286	40.65	1
0	22299	40.7	1
0	22300	40.7	1
0	22301	40.7	1
0	22302	40.7	1
0	22304	40.7	1
0	22305	40.7	1
0	22306	40.7	1
0	22307	40.7	1
0	22328	40.75	1
0	22329	40.75	1
0	22330	40.75	1
0	22331	40.75	1
0	22344	40.8	1
0	22345	40.8	1
0	22346	40.8	1
0	22347	40.8	1
0	22349	40.8	1
0	22350	40.8	1
0	22351	40.8	1
0	22352	40.8	1
0	22387	40.85	1
0	22388	40.85	1
0	22389	40.85	1
0	22390	40.85	1
0	22403	40.9	1
0	22404	40.9	1
0	22405	40.9	1
0	22406	40.9	1
0	22408	40.9	1
0	22409	40.9	1
0	22410	40.9	1
0	22411	40.9	1
0	22442	40.95	1
0	22443	40.95	1
0	22444	40.95	1
0	22445	40.95	1
0	22472	41	1
0	22473	41	1
0	22474	41	1
0	22475	41	1
0	22477	41	1
0	22478	41	1
0	22479	41	1
0	22480	41	1
0	22501	41.05	1
0	22502	41.05	1
0	22503	41.05	1
0	22504	41.05	1
0	22535	41.1	1
0	22536	41.1	1
0	22537	41.1	1
0	22538	41.1	1
0	22540	41.1	1
0	22541	41.1	1
0	22542	41.1	1
0	22543	41.1	1
0	22568	41.15	1
0	22569	41.15	1
0	22570	41.15	1
0	22571	41.15	1
0	22584	41.2	1
0	22585	41.2	1
0	22586	41.2	1
0	22587	41.2	1
0	22589	41.2	1
0	22590	41.2	1
0	22591	41.2	1
0	22592	41.2	1
0	22613	41.25	1
0	22614	41.25	1
0	22615	41.25	1
0	22616	41.25	1
0	22629	41.3	1
0	22630	41.3	1
0	22631	41.3	1
0	22632	41.3	1
0	22634	41.3	1
0	22635	41.3	1
0	22636	41.3	1
0	22637	41.3	1
0	22658	41.35	1
0	22659	41.35	1
0	22660	41.35	1
0	22661	41.35	1
0	22700	41.4	1
0	22701	41.4	1
0	22702	41.4	1
0	22703	41.4	1
0	22705	41.4	1
0	22706	41.4	1
0	22707	41.4	1
0	22708	41.4	1
0	22729	41.45	1
0	22730	41.45	1
0	22731	41.45	1
0	22732	41.45	1
0	22759	41.5	1
0	22760	41.5	1
0	22761	41.5	1
0	22762	41.5	1
0	22764	41.5	1
0	22765	41.5	1
0	22766	41.5	1
0	22767	41.5	1
0	22802	41.55	1
0	22803	41.55	1
0	22804	41.55	1
0	22805	41.55	1
0	22818	41.6	1
0	22819	41.6	1
0	22820	41.6	1
0	22821	41.6	1
0	22823	41.6	1
0	22824	41.6	1
0	22825	41.6	1
0	22826	41.6	1
0	22873	41.65	1
0	22874	41.65	1
0	22875	41.65	1
0	22876	41.65	1
0	22889	41.7	1
0	22890	41.7	1
0	22891	41.7	1
0	22892	41.7	1
0	22894	41.7	1
0	22895	41.7	1
0	22896	41.7	1
0	22897	41.7	1
0	22918	41.75	1
0	22919	41.75	1
0	22920	41.75	1
0	22921	41.75	1
0	22934	41.8	1
0	22935	41.8	1
0	22936	41.8	1
0	22937	41.8	1
0	22939	41.8	1
0	22940	41.8	1
0	22941	41.8	1
0	22942	41.8	1
0	22963	41.85	1
0	22964	41.85	1
0	22965	41.85	1
0	22966	41.85	1
0	22979	41.9	1
0	22980	41.9	1
0	22981	41.9	1
0	22982	41.9	1
0	22984	41.9	1
0	22985	41.9	1
0	22986	41.9	1
0	22987	41.9	1
0	23022	41.95	1
0	23023	41.95	1
0	23024	41.95	1
0	23025	41.95	1
0	23041	42	1
0	23042	42	1
0	23043	42	1
0	23044	42	1
0	23046	42	1
0	23047	42	1
0	23048	42	1
0	23049	42	1
0	23084	42.05	1
0	23085	42.05	1
0	23086	42.05	1
0	23087	42.05	1
0	23118	42.1	1
0	23119	42.1	1
0	23120	42.1	1
0	23121	42.1	1
0	23123	42.1	1
0	23124	42.1	1
0	23125	42.1	1
0	23126	42.1	1
0	23151	42.15	1
0	23152	42.15	1
0	23153	42.15	1
0	23154	42.15	1
0	23193	42.2	1
0	23194	42.2	1
0	23195	42.2	1
0	23196	42.2	1
0	23198	42.2	1
0	23199	42.2	1
0	23200	42.2	1
0	23201	42.2	1
0	23222	42.25	1
0	23223	42.25	1
0	23224	42.25	1
0	23225	42.25	1
0	23238	42.3	1
0	23239	42.3	1
0	23240	42.3	1
0	23241	42.3	1
0	23243	42.3	1
0	23244	42.3	1
0	23245	42.3	1
0	23246	42.3	1
0	23267	42.35	1
0	23268	42.35	1
0	23269	42.35	1
0	23270	42.35	1
0	23283	42.4	1
0	23284	42.4	1
0	23285	42.4	1
0	23286	42.4	1
0	23288	42.4	1
0	23289	42.4	1
0	23290	42.4	1
0	23291	42.4	1
0	23312	42.45	1
0	23313	42.45	1
0	23314	42.45	1
0	23315	42.45	1
0	23354	42.5	1
0	23355	42.5	1
0	23356	42.5	1
0	23357	42.5	1
0	23359	42.5	1
0	23360	42.5	1
0	23361	42.5	1
0	23362	42.5	1
0	23383	42.55	1
0	23384	42.55	1
0	23385	42.55	1
0	23386	42.55	1
0	23413	42.6	1
0	23414	42.6	1
0	23415	42.6	1
0	23416	42.6	1
0	23418	42.6	1
0	23419	42.6	1
0	23420	42.6	1
0	23421	42.6	1
0	23456	42.65	1
0	23457	42.65	1
0	23458	42.65	1
0	23459	42.65	1
0	23472	42.7	1
0	23473	42.7	1
0	23474	42.7	1
0	23475	42.7	1
0	23477	42.7	1
0	23478	42.7	1
0	23479	42.7	1
0	23480	42.7	1
0	23515	42.75	1
0	23516	42.75	1
0	23517	42.75	1
0	23518	42.75	1
0	23531	42.8	1
0	23532	42.8	1
0	23533	42.8	1
0	23534	42.8	1
0	23536	42.8	1
0	23537	42.8	1
0	23538	42.8	1
0	23539	42.8	1
0	23560	42.85	1
0	23561	42.85	1
0	23562	42.85	1
0	23563	42.85	1
0	23576	42.9	1
0	23577	42.9	1
0	23578	42.9	1
0	23579	42.9	1
0	23581	42.9	1
0	23582	42.9	1
0	23583	42.9	1
0	23584	42.9	1
0	23605	42.95	1
0	23606	42.95	1
0	23607	42.95	1
0	23608	42.95	1
0	23621	43	1
0	23622	43	1
0	23623	43	1
0	23624	43	1
0	23626	43	1
0	23627	43	1
0	23628	43	1
0	23629	43	1
0	23664	43.05	1
0	23665	43.05	1
0	23666	43.05	1
0	23667	43.05	1
0	23684	43.1	1
0	23685	43.1	1
0	23686	43.1	1
0	23687	43.1	1
0	23689	43.1	1
0	23690	43.1	1
0	23691	43.1	1
0	23692	43.1	1
0	23731	43.15	1
0	23732	43.15	1
0	23733	43.15	1
0	23734	43.15	1
0	23761	43.2	1
0	23762	43.2	1
0	23763	43.2	1
0	23764	43.2	1
0	23766	43.2	1
0	23767	43.2	1
0	23768	43.2	1
0	23769	43.2	1
0	23790	43.25	1
0	23791	43.25	1
0	23792	43.25	1
0	23793	43.25	1
0	23832	43.3	1
0	23833	43.3	1
0	23834	43.3	1
0	23835	43.3	1
0	23837	43.3	1
0	23838	43.3	1
0	23839	43.3	1
0	23840	43.3	1
0	23861	43.35	1
0	23862	43.35	1
0	23863	43.35	1
0	23864	43.35	1
0	23877	43.4	1
0	23878	43.4	1
0	23879	43.4	1
0	23880	43.4	1
0	23882	43.4	1
0	23883	43.4	1
0	23884	43.4	1
0	23885	43.4	1
0	23906	43.45	1
0	23907	43.45	1
0	23908	43.45	1
0	23909	43.45	1
0	23922	43.5	1
0	23923	43.5	1
0	23924	43.5	1
0	23925	43.5	1
0	23927	43.5	1
0	23928	43.5	1
0	23929	43.5	1
0	23930	43.5	1
0	23951	43.55	1
0	23952	43.55	1
0	23953	43.55	1
0	23954	43.55	1
0	23993	43.6	1
0	23994	43.6	1
0	23995	43.6	1
0	23996	43.6	1
0	23998	43.6	1
0	23999	43.6	1
0	24000	43.6	1
0	24001	43.6	1
0	24022	43.65	1
0	24023	43.65	1
0	24024	43.65	1
0	24025	43.65	1
0	24052	43.7	1
0	24053	43.7	1
0	24054	43.7	1
0	24055	43.7	1
0	24057	43.7	1
0	24058	43.7	1
0	24059	43.7	1
0	24060	43.7	1
0	24095	43.75	1
0	24096	43.75	1
0	24097	43.75	1
0	24098	43.75	1
0	24111	43.8	1
0	24112	43.8	1
0	24113	43.8	1
0	24114	43.8	1
0	24116	43.8	1
0	24117	43.8	1
0	24118	43.8	1
0	24119	43.8	1
0	24154	43.85	1
0	24155	43.85	1
0	24156	43.85	1
0	24157	43.85	1
0	24170	43.9	1
0	24171	43.9	1
0	24172	43.9	1
0	24173	43.9	1
0	24175	43.9	1
0	24176	43.9	1
0	24177	43.9	1
0	24178	43.9	1
0	24199	43.95	1
0	24200	43.95	1
0	24201	43.95	1
0	24202	43.95	1
0	24215	44	1
0	24216	44	1
[...]
0	54883	98.7	1
0	54884	98.7	1
0	54885	98.7	1
0	54886	98.7	1
0	54887	98.7	1
0	54908	98.75	1
0	54909	98.75	1
0	54910	98.75	1
0	54911	98.75	1
0	54924	98.8	1
0	54925	98.8	1
0	54926	98.8	1
0	54927	98.8	1
0	54928	98.8	1
0	54929	98.8	1
0	54930	98.8	1
0	54931	98.8	1
0	54966	98.85	1
0	54967	98.85	1
0	54968	98.85	1
0	54969	98.85	1
0	54982	98.9	1
0	54983	98.9	1
0	54984	98.9	1
0	54985	98.9	1
0	54986	98.9	1
0	54987	98.9	1
0	54988	98.9	1
0	54989	98.9	1
0	55010	98.95	1
0	55011	98.95	1
0	55012	98.95	1
0	55013	98.95	1
0	55026	99	1
0	55027	99	1
0	55028	99	1
0	55029	99	1
0	55030	99	1
0	55031	99	1
0	55032	99	1
0	55033	99	1
0	55054	99.05	1
0	55055	99.05	1
0	55056	99.05	1
0	55057	99.05	1
0	55070	99.1	1
0	55071	99.1	1
0	55072	99.1	1
0	55073	99.1	1
0	55074	99.1	1
0	55075	99.1	1
0	55076	99.1	1
0	55077	99.1	1
0	55098	99.15	1
0	55099	99.15	1
0	55100	99.15	1
0	55101	99.15	1
0	55114	99.2	1
0	55115	99.2	1
0	55116	99.2	1
0	55117	99.2	1
0	55118	99.2	1
0	55119	99.2	1
0	55120	99.2	1
0	55121	99.2	1
0	55156	99.25	1
0	55157	99.25	1
0	55158	99.25	1
0	55159	99.25	1
0	55172	99.3	1
0	55173	99.3	1
0	55174	99.3	1
0	55175	99.3	1
0	55176	99.3	1
0	55177	99.3	1
0	55178	99.3	1
0	55179	99.3	1
0	55200	99.35	1
0	55201	99.35	1
0	55202	99.35	1
0	55203	99.35	1
0	55230	99.4	1
0	55231	99.4	1
0	55232	99.4	1
0	55233	99.4	1
0	55234	99.4	1
0	55235	99.4	1
0	55236	99.4	1
0	55237	99.4	1
0	55258	99.45	1
0	55259	99.45	1
0	55260	99.45	1
0	55261	99.45	1
0	55274	99.5	1
0	55275	99.5	1
0	55276	99.5	1
0	55277	99.5	1
0	55278	99.5	1
0	55279	99.5	1
0	55280	99.5	1
0	55281	99.5	1
0	55316	99.55	1
0	55317	99.55	1
0	55318	99.55	1
0	55319	99.55	1
0	55332	99.6	1
0	55333	99.6	1
0	55334	99.6	1
0	55335	99.6	1
0	55336	99.6	1
0	55337	99.6	1
0	55338	99.6	1
0	55339	99.6	1
0	55360	99.65	1
0	55361	99.65	1
0	55362	99.65	1
0	55363	99.65	1
0	55390	99.7	1
0	55391	99.7	1
0	55392	99.7	1
0	55393	99.7	1
0	55394	99.7	1
0	55395	99.7	1
0	55396	99.7	1
0	55397	99.7	1
0	55418	99.75	1
0	55419	99.75	1
0	55420	99.75	1
0	55421	99.75	1
0	55448	99.8	1
0	55449	99.8	1
0	55450	99.8	1
0	55451	99.8	1
0	55452	99.8	1
0	55453	99.8	1
0	55454	99.8	1
0	55455	99.8	1
0	55476	99.85	1
0	55477	99.85	1
0	55478	99.85	1
0	55479	99.85	1
0	55492	99.9	1
0	55493	99.9	1
0	55494	99.9	1
0	55495	99.9	1
0	55496	99.9	1
0	55497	99.9	1
0	55498	99.9	1
0	55499	99.9	1
0	55534	99.95	1
0	55535	99.95	1
0	55536	99.95	1
0	55537	99.95	1
0	55551	100	1
0	55552	100	1
0	55553	100	1
0	55554	100	1
0	55555	100	1
0	55556	100	1
0	55557	100	1
0	55558	100	1
1	29	0.1	-nan
1	31	0.1	-nan
1	33	0.1	-nan
1	35	0.1	-nan
1	467	1.1	-nan
1	468	1.1	-nan
1	469	1.1	-nan
1	470	1.1	-nan
1	1017	2.1	-nan
1	1018	2.1	-nan
1	1019	2.1	-nan
1	1020	2.1	-nan
1	1567	3.1	-nan
1	1568	3.1	-nan
1	1569	3.1	-nan
1	1570	3.1	-nan
1	2113	4.1	-nan
1	2114	4.1	-nan
1	2115	4.1	-nan
1	2116	4.1	-nan
1	2656	5.1	-nan
1	2657	5.1	-nan
1	2658	5.1	-nan
1	2659	5.1	-nan
1	3345	6.1	-nan
1	3346	6.1	-nan
1	3347	6.1	-nan
1	3348	6.1	-nan
1	3884	7.1	-nan
1	3885	7.1	-nan
1	3886	7.1	-nan
1	3887	7.1	-nan
1	4407	8.1	-nan
1	4408	8.1	-nan
1	4409	8.1	-nan
1	4410	8.1	-nan
1	4961	9.1	-nan
1	4962	9.1	-nan
1	4963	9.1	-nan
1	4964	9.1	-nan
1	5532	10.1	-nan
1	5533	10.1	-nan
1	5534	10.1	-nan
1	5535	10.1	-nan
1	6078	11.1	-nan
1	6079	11.1	-nan
1	6080	11.1	-nan
1	6081	11.1	-nan
1	6590	12.1	-nan
1	6591	12.1	-nan
1	6592	12.1	-nan
1	6593	12.1	-nan
1	7134	13.1	-nan
1	7135	13.1	-nan
1	7136	13.1	-nan
1	7137	13.1	-nan
1	7713	14.1	-nan
1	7714	14.1	-nan
1	7715	14.1	-nan
1	7716	14.1	-nan
1	8219	15.1	-nan
1	8220	15.1	-nan
1	8221	15.1	-nan
1	8222	15.1	-nan
1	8791	16.1	-nan
1	8792	16.1	-nan
1	8793	16.1	-nan
1	8794	16.1	-nan
1	9331	17.1	-nan
1	9332	17.1	-nan
1	9333	17.1	-nan
1	9334	17.1	-nan
1	9823	18.1	-nan
1	9824	18.1	-nan
1	9825	18.1	-nan
1	9826	18.1	-nan
1	10350	19.1	-nan
1	10351	19.1	-nan
1	10352	19.1	-nan
1	10353	19.1	-nan
1	10923	20.1	-nan
1	10924	20.1	-nan
1	10925	20.1	-nan
1	10926	20.1	-nan
1	11495	21.1	-nan
1	11496	21.1	-nan
1	11497	21.1	-nan
1	11498	21.1	-nan
1	12004	22.1	-nan
1	12005	22.1	-nan
1	12006	22.1	-nan
1	12007	22.1	-nan
1	12550	23.1	-nan
1	12551	23.1	-nan
1	12552	23.1	-nan
1	12553	23.1	-nan
1	13110	24.1	-nan
1	13111	24.1	-nan
1	13112	24.1	-nan
1	13113	24.1	-nan
1	13674	25.1	-nan
1	13675	25.1	-nan
1	13676	25.1	-nan
1	13677	25.1	-nan
1	14166	26.1	-nan
1	14167	26.1	-nan
1	14168	26.1	-nan
1	14169	26.1	-nan
1	14715	27.1	-nan
1	14716	27.1	-nan
1	14717	27.1	-nan
1	14718	27.1	-nan
1	15270	28.1	-nan
1	15271	28.1	-nan
1	15272	28.1	-nan
1	15273	28.1	-nan
1	15792	29.1	-nan
1	15793	29.1	-nan
1	15794	29.1	-nan
1	15795	29.1	-nan
1	16405	30.1	-nan
1	16406	30.1	-nan
1	16407	30.1	-nan
1	16408	30.1	-nan
1	16947	31.1	-nan
1	16948	31.1	-nan
1	16949	31.1	-nan
1	16950	31.1	-nan
1	17466	32.1	-nan
1	17467	32.1	-nan
1	17468	32.1	-nan
1	17469	32.1	-nan
1	18017	33.1	-nan
1	18018	33.1	-nan
1	18019	33.1	-nan
1	18020	33.1	-nan
1	18563	34.1	-nan
1	18564	34.1	-nan
1	18565	34.1	-nan
1	18566	34.1	-nan
1	19106	35.1	-nan
1	19107	35.1	-nan
1	19108	35.1	-nan
1	19109	35.1	-nan
1	19706	36.1	-nan
1	19707	36.1	-nan
1	19708	36.1	-nan
1	19709	36.1	-nan
1	20275	37.1	-nan
1	20276	37.1	-nan
1	20277	37.1	-nan
1	20278	37.1	-nan
1	20820	38.1	-nan
1	20821	38.1	-nan
1	20822	38.1	-nan
1	20823	38.1	-nan
1	21345	39.1	-nan
1	21346	39.1	-nan
1	21347	39.1	-nan
1	21348	39.1	-nan
1	21929	40.1	-nan
1	21930	40.1	-nan
1	21931	40.1	-nan
1	21932	40.1	-nan
1	22531	41.1	-nan
1	22532	41.1	-nan
1	22533	41.1	-nan
1	22534	41.1	-nan
1	23114	42.1	-nan
1	23115	42.1	-nan
1	23116	42.1	-nan
1	23117	42.1	-nan
1	23680	43.1	-nan
1	23681	43.1	-nan
1	23682	43.1	-nan
1	23683	43.1	-nan
1	24260	44.1	-nan
1	24261	44.1	-nan
1	24262	44.1	-nan
1	24263	44.1	-nan
1	24855	45.1	-nan
1	24856	45.1	-nan
1	24857	45.1	-nan
1	24858	45.1	-nan
1	25445	46.1	-nan
1	25446	46.1	-nan
1	25447	46.1	-nan
1	25448	46.1	-nan
1	26028	47.1	-nan
1	26029	47.1	-nan
1	26030	47.1	-nan
1	26031	47.1	-nan
1	26604	48.1	-nan
1	26605	48.1	-nan
1	26606	48.1	-nan
1	26607	48.1	-nan
1	27184	49.1	-nan
1	27185	49.1	-nan
1	27186	49.1	-nan
1	27187	49.1	-nan
1	27762	50.1	-nan
1	27763	50.1	-nan
1	27764	50.1	-nan
1	27765	50.1	-nan
1	28354	51.1	-nan
1	28355	51.1	-nan
1	28356	51.1	-nan
1	28357	51.1	-nan
1	28941	52.1	-nan
1	28942	52.1	-nan
1	28943	52.1	-nan
1	28944	52.1	-nan
1	29503	53.1	-nan
1	29504	53.1	-nan
1	29505	53.1	-nan
1	29506	53.1	-nan
1	30008	54.1	-nan
1	30009	54.1	-nan
1	30010	54.1	-nan
1	30011	54.1	-nan
1	30577	55.1	-nan
1	30578	55.1	-nan
1	30579	55.1	-nan
1	30580	55.1	-nan
1	31161	56.1	-nan
1	31162	56.1	-nan
1	31163	56.1	-nan
1	31164	56.1	-nan
1	31754	57.1	-nan
1	31755	57.1	-nan
1	31756	57.1	-nan
1	31757	57.1	-nan
1	32319	58.1	-nan
1	32320	58.1	-nan
1	32321	58.1	-nan
1	32322	58.1	-nan
1	32883	59.1	-nan
1	32884	59.1	-nan
1	32885	59.1	-nan
1	32886	59.1	-nan
1	33464	60.1	-nan
1	33465	60.1	-nan
1	33466	60.1	-nan
1	33467	60.1	-nan
1	34048	61.1	-nan
1	34049	61.1	-nan
1	34050	61.1	-nan
1	34051	61.1	-nan
1	34635	62.1	-nan
1	34636	62.1	-nan
1	34637	62.1	-nan
1	34638	62.1	-nan
1	35219	63.1	-nan
1	35220	63.1	-nan
1	35221	63.1	-nan
1	35222	63.1	-nan
1	35775	64.1	-nan
1	35776	64.1	-nan
1	35777	64.1	-nan
1	35778	64.1	-nan
1	36328	65.1	-nan
1	36329	65.1	-nan
1	36330	65.1	-nan
1	36331	65.1	-nan
1	36912	66.1	-nan
1	36913	66.1	-nan
1	36914	66.1	-nan
1	36915	66.1	-nan
1	37499	67.1	-nan
1	37500	67.1	-nan
1	37501	67.1	-nan
1	37502	67.1	-nan
1	38083	68.1	-nan
1	38084	68.1	-nan
1	38085	68.1	-nan
1	38086	68.1	-nan
1	38628	69.1	-nan
1	38629	69.1	-nan
1	38630	69.1	-nan
1	38631	69.1	-nan
1	39145	70.1	-nan
1	39146	70.1	-nan
1	39147	70.1	-nan
1	39148	70.1	-nan
1	39727	71.1	-nan
1	39728	71.1	-nan
1	39729	71.1	-nan
1	39730	71.1	-nan
1	40249	72.1	-nan
1	40250	72.1	-nan
1	40251	72.1	-nan
1	40252	72.1	-nan
1	40782	73.1	-nan
1	40783	73.1	-nan
1	40784	73.1	-nan
1	40785	73.1	-nan
1	41312	74.1	-nan
1	41313	74.1	-nan
1	41314	74.1	-nan
1	41315	74.1	-nan
1	41894	75.1	-nan
1	41895	75.1	-nan
1	41896	75.1	-nan
1	41897	75.1	-nan
1	42396	76.1	-nan
1	42397	76.1	-nan
1	42398	76.1	-nan
1	42399	76.1	-nan
1	42995	77.1	-nan
1	42996	77.1	-nan
1	42997	77.1	-nan
1	42998	77.1	-nan
1	43579	78.1	-nan
1	43580	78.1	-nan
1	43581	78.1	-nan
1	43582	78.1	-nan
1	44149	79.1	-nan
1	44150	79.1	-nan
1	44151	79.1	-nan
1	44152	79.1	-nan
1	44655	80.1	-nan
1	44656	80.1	-nan
1	44657	80.1	-nan
1	44658	80.1	-nan
1	45214	81.1	-nan
1	45215	81.1	-nan
1	45216	81.1	-nan
1	45217	81.1	-nan
1	45722	82.1	-nan
1	45723	82.1	-nan
1	45724	82.1	-nan
1	45725	82.1	-nan
1	46326	83.1	-nan
1	46327	83.1	-nan
1	46328	83.1	-nan
1	46329	83.1	-nan
1	46896	84.1	-nan
1	46897	84.1	-nan
1	46898	84.1	-nan
1	46899	84.1	-nan
1	47477	85.1	-nan
1	47478	85.1	-nan
1	47479	85.1	-nan
1	47480	85.1	-nan
1	48017	86.1	-nan
1	48018	86.1	-nan
1	48019	86.1	-nan
1	48020	86.1	-nan
1	48602	87.1	-nan
1	48603	87.1	-nan
1	48604	87.1	-nan
1	48605	87.1	-nan
1	49182	88.1	-nan
1	49183	88.1	-nan
1	49184	88.1	-nan
1	49185	88.1	-nan
1	49759	89.1	-nan
1	49760	89.1	-nan
1	49761	89.1	-nan
1	49762	89.1	-nan
1	50342	90.1	-nan
1	50343	90.1	-nan
1	50344	90.1	-nan
1	50345	90.1	-nan
2	2935	5.528453385287	141
2	2946	5.542293385287	282
2	2956	5.546933385287	423
2	2982	5.556133385287	564
2	2992	5.560773385287	705
2	3002	5.569973385287	846
2	3012	5.574613385287	987
2	3022	5.583813385287	1128
2	3032	5.588453385287	1269
2	3042	5.597653385287	1410
2	3076	5.602293385287	1551
2	3338	6.083093385287	1692
2	3652	6.628453385287	1833
2	3662	6.633093385287	1974
2	3672	6.642293385287	2115
2	3968	7.178453385287	2256
2	4800	8.828453385287	2397
2	4871	8.928453385287	2538
2	4881	8.942293385287	2679
2	5184	9.478453385287	2820
2	5437	9.928453385287	2961
2	5745	10.478453385287	3102
2	5814	10.578453385287	3243
2	6132	11.128453385287	3384
2	6687	12.228453385287	3525
2	6901	12.628453385287	3666
2	6911	12.642293385287	3807
2	7312	13.328453385287	3948
2	7521	13.728453385287	4089
2	7620	13.878453385287	4230
2	7829	14.278453385287	4371
2	8375	15.378453385287	4512
2	8446	15.478453385287	4653
2	8456	15.492293385287	4794
2	9004	16.478453385287	4935
2	9387	17.128453385287	5076
2	9397	17.142293385287	5217
2	10094	18.628453385287	5358
2	10104	18.642293385287	5499
2	10327	19.028453385287	5640
2	10422	19.178453385287	5781
2	10432	19.192293385287	5922
2	10658	19.578453385287	6063
2	10977	20.128453385287	6204
2	11059	20.278453385287	6345
2	11285	20.678453385287	6486
2	11651	21.378453385287	6627
2	12405	22.828453385287	6768
2	12415	22.842293385287	6909
2	12527	23.028453385287	7050
2	12734	23.378453385287	7191
2	12846	23.578453385287	7332
2	13164	24.128453385287	7473
2	13363	24.478453385287	7614
2	13930	25.578453385287	7755
2	14220	26.128453385287	7896
2	14812	27.228453385287	8037
2	14901	27.378608133	8178
2	14911	27.392448603024	8319
2	14948	27.406289072622	8460
2	15426	28.328453385287	8601
2	15939	29.278717485582	8742
2	15949	29.292557749867	8883
2	16055	29.428453385287	9024
2	16658	30.528453385287	9165
2	17540	32.178453385287	9306
2	17550	32.192293385287	9447
2	18165	33.278453385287	9588
2	18739	34.378453385287	9729
2	19296	35.37873674695	9870
2	19364	35.478453385287	10011
2	19627	35.928722957953	10152
2	19942	36.478704227373	10293
2	19952	36.492543965623	10434
2	20023	36.578453385287	10575
2	20525	37.528453385287	10716
2	20813	38.078453385287	10857
2	21128	38.628453385287	10998
2	21417	39.178453385287	11139
2	21859	39.978529257075	11280
2	21869	39.992368924327	11421
2	21906	40.006208592139	11562
2	22046	40.278453385287	11703
2	22221	40.528503249254	11844
2	22231	40.542342940665	11985
2	22693	41.378453385287	12126
2	22866	41.628457557368	12267
2	23186	42.17843801723	12408
2	23347	42.478453385287	12549
2	23825	43.278405231713	12690
2	23986	43.578453385287	12831
2	24316	44.128453385287	12972
2	24476	44.378379943064	13113
2	24956	45.228453385287	13254
2	25116	45.478360967682	13395
2	25591	46.328453385287	13536
2	25751	46.57834724277	13677
2	26084	47.128342077349	13818
2	26245	47.428453385287	13959
2	26719	48.228334729511	14100
2	26880	48.528453385287	14241
2	27358	49.328330984448	14382
2	27519	49.628453385287	14523
2	27987	50.428330353062	14664
2	28147	50.728453385287	14805
2	28157	50.742293385287	14946
2	28469	51.278453385287	15087
2	28639	51.528330353062	15228
2	29100	52.378453385287	15369
2	29266	52.628330353062	15510
2	29574	53.178330353062	15651
2	30137	54.278330353062	15792
2	30455	54.828453385287	15933
2	30465	54.842293385287	16074
2	30781	55.378330353062	16215
2	30786	55.378453385287	16356
2	31409	56.478330353062	16497
2	31414	56.478453385287	16638
2	31734	57.028453385287	16779
2	32048	57.578330353062	16920
2	32053	57.578453385287	17061
2	32064	57.592293385287	17202
2	32384	58.128330353062	17343
2	33003	59.228330353062	17484
2	33008	59.228453385287	17625
2	33022	59.242293385287	17766
2	33048	59.256133385287	17907
2	33652	60.328330353062	18048
2	33657	60.328453385287	18189
2	34280	61.428330353062	18330
2	34285	61.428453385287	18471
2	34911	62.528330353062	18612
2	34916	62.528453385287	18753
2	35539	63.628330353062	18894
2	35544	63.628453385287	19035
2	35856	64.178330353062	19176
2	36172	64.728453385287	19317
2	36488	65.278330353062	19458
2	36493	65.278453385287	19599
2	37116	66.378330353062	19740
2	37121	66.378453385287	19881
2	37747	67.478330353062	20022
2	37752	67.478453385287	20163
2	38375	68.578330353062	20304
2	38380	68.578453385287	20445
2	38683	69.128330353062	20586
2	39218	70.178453385287	20727
2	39228	70.192293385287	20868
2	39282	70.228330353062	21009
2	39887	71.328330353062	21150
2	40450	72.428330353062	21291
2	41027	73.528330353062	21432
2	41417	74.228453385287	21573
2	41427	74.242293385287	21714
2	41453	74.256133385287	21855
2	41463	74.269973385287	21996
2	41677	74.628330353062	22137
2	41965	75.178330353062	22278
2	42539	76.278330353062	22419
2	42611	76.378453385287	22560
2	42621	76.392293385287	22701
2	43182	77.378330353062	22842
2	43252	77.478453385287	22983
2	43810	78.478330353062	23124
2	43880	78.578453385287	23265
2	44413	79.578330353062	23406
2	44710	80.128330353062	23547
2	45045	80.742293385287	23688
2	45316	81.228330353062	23829
2	45900	82.328330353062	23970
2	45905	82.328453385287	24111
2	45919	82.342293385287	24252
2	45945	82.356133385287	24393
2	46544	83.428330353062	24534
2	46549	83.428453385287	24675
2	47172	84.528330353062	24816
2	47177	84.528453385287	24957
2	47790	85.628330353062	25098
2	48107	86.178330353062	25239
2	48112	86.178453385287	25380
2	48126	86.192293385287	25521
2	48748	87.278330353062	25662
2	48753	87.278453385287	25803
2	49365	88.378330353062	25944
2	49681	88.928453385287	26085
2	49995	89.478330353062	26226
2	50000	89.478453385287	26367
2	50014	89.492293385287	26508
2	50620	90.578330353062	26649
2	51316	91.928453385287	26790
3	2935	5.528453385287	141
3	2946	5.542293385287	282
3	2956	5.546933385287	423
3	2982	5.556133385287	564
3	2992	5.560773385287	705
3	3002	5.569973385287	846
3	3012	5.574613385287	987
3	3022	5.583813385287	1128
3	3032	5.588453385287	1269
3	3042	5.597653385287	1410
3	3076	5.602293385287	1551
3	3338	6.083093385287	1692
3	3652	6.628453385287	1833
3	3662	6.633093385287	1974
3	3672	6.642293385287	2115
3	3968	7.178453385287	2256
3	4800	8.828453385287	2397
3	4871	8.928453385287	2538
3	4881	8.942293385287	2679
3	5184	9.478453385287	2820
3	5437	9.928453385287	2961
3	5745	10.478453385287	3102
3	5814	10.578453385287	3243
3	6132	11.128453385287	3384
3	6687	12.228453385287	3525
3	6901	12.628453385287	3666
3	6911	12.642293385287	3807
3	7312	13.328453385287	3948
3	7521	13.728453385287	4089
3	7620	13.878453385287	4230
3	7829	14.278453385287	4371
3	8375	15.378453385287	4512
3	8446	15.478453385287	4653
3	8456	15.492293385287	4794
3	9004	16.478453385287	4935
3	9387	17.128453385287	5076
3	9397	17.142293385287	5217
3	10094	18.628453385287	5358
3	10104	18.642293385287	5499
3	10327	19.028453385287	5640
3	10422	19.178453385287	5781
3	10432	19.192293385287	5922
3	10658	19.578453385287	6063
3	10977	20.128453385287	6204
3	11059	20.278453385287	6345
3	11285	20.678453385287	6486
3	11651	21.378453385287	6627
3	12405	22.828453385287	6768
3	12415	22.842293385287	6909
3	12527	23.028453385287	7050
3	12734	23.378453385287	7191
3	12846	23.578453385287	7332
3	13164	24.128453385287	7473
3	13363	24.478453385287	7614
3	13930	25.578453385287	7755
3	14220	26.128453385287	7896
3	14812	27.228453385287	8037
3	14901	27.378608133	8178
3	14911	27.392448603024	8319
3	14948	27.406289072622	8460
3	15426	28.328453385287	8601
3	15939	29.278717485582	8742
3	15949	29.292557749867	8883
3	16055	29.428453385287	9024
3	16658	30.528453385287	9165
3	17540	32.178453385287	9306
3	17550	32.192293385287	9447
3	18165	33.278453385287	9588
3	18739	34.378453385287	9729
3	19296	35.37873674695	9870
3	19364	35.478453385287	10011
3	19627	35.928722957953	10152
3	19942	36.478704227373	10293
3	19952	36.492543965623	10434
3	20023	36.578453385287	10575
3	20525	37.528453385287	10716
3	20813	38.078453385287	10857
3	21128	38.628453385287	10998
3	21417	39.178453385287	11139
3	21859	39.978529257075	11280
3	21869	39.992368924327	11421
3	21906	40.006208592139	11562
3	22046	40.278453385287	11703
3	22221	40.528503249254	11844
3	22231	40.542342940665	11985
3	22693	41.378453385287	12126
3	22866	41.628457557368	12267
3	23186	42.17843801723	12408
3	23347	42.478453385287	12549
3	23825	43.278405231713	12690
3	23986	43.578453385287	12831
3	24316	44.128453385287	12972
3	24476	44.378379943064	13113
3	24956	45.228453385287	13254
3	25116	45.478360967682	13395
3	25591	46.328453385287	13536
3	25751	46.57834724277	13677
3	26084	47.128342077349	13818
3	26245	47.428453385287	13959
3	26719	48.228334729511	14100
3	26880	48.528453385287	14241
3	27358	49.328330984448	14382
3	27519	49.628453385287	14523
3	27987	50.428330353062	14664
3	28147	50.728453385287	14805
3	28157	50.742293385287	14946
3	28469	51.278453385287	15087
3	28639	51.528330353062	15228
3	29100	52.378453385287	15369
3	29266	52.628330353062	15510
3	29574	53.178330353062	15651
3	30137	54.278330353062	15792
3	30455	54.828453385287	15933
3	30465	54.842293385287	16074
3	30781	55.378330353062	16215
3	30786	55.378453385287	16356
3	31409	56.478330353062	16497
3	31414	56.478453385287	16638
3	31734	57.028453385287	16779
3	32048	57.578330353062	16920
3	32053	57.578453385287	17061
3	32064	57.592293385287	17202
3	32384	58.128330353062	17343
3	33003	59.228330353062	17484
3	33008	59.228453385287	17625
3	33022	59.242293385287	17766
3	33048	59.256133385287	17907
3	33652	60.328330353062	18048
3	33657	60.328453385287	18189
3	34280	61.428330353062	18330
3	34285	61.428453385287	18471
3	34911	62.528330353062	18612
3	34916	62.528453385287	18753
3	35539	63.628330353062	18894
3	35544	63.628453385287	19035
3	35856	64.178330353062	19176
3	36172	64.728453385287	19317
3	36488	65.278330353062	19458
3	36493	65.278453385287	19599
3	37116	66.378330353062	19740
3	37121	66.378453385287	19881
3	37747	67.478330353062	20022
3	37752	67.478453385287	20163
3	38375	68.578330353062	20304
3	38380	68.578453385287	20445
3	38683	69.128330353062	20586
3	39218	70.178453385287	20727
3	39228	70.192293385287	20868
3	39282	70.228330353062	21009
3	39887	71.328330353062	21150
3	40450	72.428330353062	21291
3	41027	73.528330353062	21432
3	41417	74.228453385287	21573
3	41427	74.242293385287	21714
3	41453	74.256133385287	21855
3	41463	74.269973385287	21996
3	41677	74.628330353062	22137
3	41965	75.178330353062	22278
3	42539	76.278330353062	22419
3	42611	76.378453385287	22560
3	42621	76.392293385287	22701
3	43182	77.378330353062	22842
3	43252	77.478453385287	22983
3	43810	78.478330353062	23124
3	43880	78.578453385287	23265
3	44413	79.578330353062	23406
3	44710	80.128330353062	23547
3	45045	80.742293385287	23688
3	45316	81.228330353062	23829
3	45900	82.328330353062	23970
3	45905	82.328453385287	24111
3	45919	82.342293385287	24252
3	45945	82.356133385287	24393
3	46544	83.428330353062	24534
3	46549	83.428453385287	24675
3	47172	84.528330353062	24816
3	47177	84.528453385287	24957
3	47790	85.628330353062	25098
3	48107	86.178330353062	25239
3	48112	86.178453385287	25380
3	48126	86.192293385287	25521
3	48748	87.278330353062	25662
3	48753	87.278453385287	25803
3	49365	88.378330353062	25944
3	49681	88.928453385287	26085
3	49995	89.478330353062	26226
3	50000	89.478453385287	26367
3	50014	89.492293385287	26508
3	50620	90.578330353062	26649
3	51316	91.928453385287	26790

