version 2
run E-0-20191016-14:20:27-15619
attr configname E
attr datetime 20191016-14:20:27
attr experiment E
attr inifile SimV3.ini
attr iterationvars ""
attr iterationvarsf ""
attr measurement ""
attr network NetworkTormV2
attr processid 15619
attr repetition 0
attr replication #0
attr resultdir results
attr runnumber 0
attr seedset 0
param **.mobility.traceFile "\"pathsGW/E.movements\""
param **.numNodes 11
param **.application.dataGenerationInterval 1s
param **.application.dataSizeInBytes 10
param **.application.ttl 999999s
param **application.nodesThatGen false
param **application.nodesGenMsg "\"\""
param **application.startMultipleMsg false
param **application.numMultipleMsg 100
param **application.hopsListSize 50
param **.application.endGeneratingMsg 99s
param **.routingLayer "\"RoutingLqeGw\""
param **.routing.maximumCacheSize 5000byte
param **.routing.maximumHopCount 25
param **.routing.useTTL false
param **.routing.waitBFsend 0.5
param **.routing.max_age 999999s
param **.routing.gateway_list "\"\""
param **.routing.actual_gateway "\"\""
param **.routing.gwCheckPeriod 5s
param **.neighboring.resetGPeriod 10s
param **.wirelessIfc.wirelessRange 40m
param **.numNodes 2
param **.application.usedRNG 1
param **.application.dataGenerationInterval 1s
param **.application.dataSizeInBytes 10
param **.application.ttl 999999s
param **application.destinationAddr "\"Wf:00:00:00:00:02\""
param **application.destinationBTAddr "\"Bt:00:00:00:00:02\""
param **application.nodesThatGen true
param **application.nodesGenMsg "\"0\""
param **application.startMultipleMsg true
param **application.numMultipleMsg 100
param **application.hopsListSize 50
param **.application.endGeneratingMsg 999999s
param **.routingLayer "\"RoutingLqeGw\""
param **.routing.maximumCacheSize 5000byte
param **.routing.maximumHopCount 25
param **.routing.useTTL false
param **.routing.waitBFsend 0.5
param **.routing.max_age 999999s
param **.routing.gateway_list "\"\""
param **.routing.actual_gateway "\"\""
param **.routing.gwCheckPeriod 5s
param **.neighboring.antiEntropyInterval 500ms
param **.neighboring.maximumRandomBackoffDuration 1s
param **.neighboring.delayPerDataMsg 0.1
param **neighboring.usedRNG 2
param **.neighboring.GWAddr "\"Wf:00:00:00:00:02\""
param **.neighboring.sendWifiFirst true
param **.neighboring.maxLengthGraph 20
param **.neighboring.max_age 999999s
param **.neighboring.max_absent_time 1s
param **.wirelessIfc.wirelessRange 40m
param **.wirelessIfc.neighbourScanInterval 50ms
param **.wirelessIfc.bandwidthBitRate 100000bps
param **.wirelessIfc.wirelessHeaderSize 32byte
param **.wirelessIfc.minSSI -90
param **.wirelessIfc.limitQueueTime 400ms
param **.wirelessIfc.my_limit_rate 0bps
param **.bluetoothIfc.wirelessRange 40m
param **.bluetoothIfc.neighbourScanInterval 100ms
param **.bluetoothIfc.bandwidthBitRate 100000bps
param **.bluetoothIfc.wirelessHeaderSize 16byte
param **.bluetoothIfc.minSSI -90
param **.mobilityType "\"BonnMotionMobility\""
param **.mobility.traceFile "\"paths/Moves2.movements\""
param **.mobility.is3D false
param **.mobility.nodeId -1

vector 0 NetworkTormV2 neighbourhoodSize:vector ETV
attr source neighbourhoodSize
vector 1 NetworkTormV2 deliveryRatio:vector ETV
attr source sum(totalDataBytesReceived)/sum(totalDataBytesReceivableByAllNodes)
vector 2 NetworkTormV2 dataBytesReceivedSum:vector ETV
attr source sum(dataBytesReceived)
vector 3 NetworkTormV2 totalBytesReceivedSum:vector ETV
attr source sum(totalBytesReceived)
0	34	0.05	3
0	35	0.05	5
0	36	0.05	3
0	37	0.05	5
0	38	0.05	8
0	39	0.05	5
0	40	0.05	3
0	41	0.05	5
0	42	0.05	3
0	43	0.05	1
0	44	0.05	1
0	134	0.1	3
0	136	0.1	5
0	138	0.1	3
0	140	0.1	5
0	142	0.1	8
0	144	0.1	5
0	146	0.1	3
0	148	0.1	5
0	150	0.1	3
0	152	0.1	1
0	154	0.1	1
0	166	0.1	3
0	167	0.1	5
0	168	0.1	3
0	169	0.1	5
0	170	0.1	8
0	171	0.1	5
0	172	0.1	3
0	173	0.1	5
0	174	0.1	3
0	175	0.1	1
0	176	0.1	1
0	298	0.15	3
0	299	0.15	5
0	300	0.15	3
0	301	0.15	5
0	302	0.15	8
0	303	0.15	5
0	304	0.15	3
0	305	0.15	5
0	306	0.15	3
0	307	0.15	1
0	308	0.15	1
0	397	0.2	3
0	398	0.2	5
0	399	0.2	3
0	400	0.2	5
0	401	0.2	8
0	402	0.2	5
0	403	0.2	3
0	404	0.2	5
0	405	0.2	3
0	406	0.2	1
0	407	0.2	1
0	419	0.2	3
0	420	0.2	5
0	421	0.2	3
0	422	0.2	5
0	423	0.2	8
0	424	0.2	5
0	425	0.2	3
0	426	0.2	5
0	427	0.2	3
0	428	0.2	1
0	429	0.2	1
0	540	0.25	3
0	541	0.25	5
0	542	0.25	3
0	543	0.25	5
0	544	0.25	8
0	545	0.25	5
0	546	0.25	3
0	547	0.25	5
0	548	0.25	3
0	549	0.25	1
0	550	0.25	1
0	639	0.3	3
0	640	0.3	5
0	641	0.3	3
0	642	0.3	5
0	643	0.3	8
0	644	0.3	5
0	645	0.3	3
0	646	0.3	5
0	647	0.3	3
0	648	0.3	1
0	649	0.3	1
0	661	0.3	3
0	662	0.3	5
0	663	0.3	3
0	664	0.3	5
0	665	0.3	8
0	666	0.3	5
0	667	0.3	3
0	668	0.3	5
0	669	0.3	3
0	670	0.3	1
0	671	0.3	1
0	782	0.35	3
0	783	0.35	5
0	784	0.35	3
0	785	0.35	5
0	786	0.35	8
0	787	0.35	5
0	788	0.35	3
0	789	0.35	5
0	790	0.35	3
0	791	0.35	1
0	792	0.35	1
0	881	0.4	3
0	882	0.4	5
0	883	0.4	3
0	884	0.4	5
0	885	0.4	8
0	886	0.4	5
0	887	0.4	3
0	888	0.4	5
0	889	0.4	3
0	890	0.4	1
0	891	0.4	1
0	903	0.4	3
0	904	0.4	5
0	905	0.4	3
0	906	0.4	5
0	907	0.4	8
0	908	0.4	5
0	909	0.4	3
0	910	0.4	5
0	911	0.4	3
0	912	0.4	1
0	913	0.4	1
0	1024	0.45	3
0	1025	0.45	5
0	1026	0.45	3
0	1027	0.45	5
0	1028	0.45	8
0	1029	0.45	5
0	1030	0.45	3
0	1031	0.45	5
0	1032	0.45	3
0	1033	0.45	1
0	1034	0.45	1
0	1123	0.5	3
0	1124	0.5	5
0	1125	0.5	3
0	1126	0.5	5
0	1127	0.5	8
0	1128	0.5	5
0	1129	0.5	3
0	1130	0.5	5
0	1131	0.5	3
0	1132	0.5	1
0	1133	0.5	1
0	1145	0.5	3
0	1146	0.5	5
0	1147	0.5	3
0	1148	0.5	5
0	1149	0.5	8
0	1150	0.5	5
0	1151	0.5	3
0	1152	0.5	5
0	1153	0.5	3
0	1154	0.5	1
0	1155	0.5	1
0	1266	0.55	3
0	1267	0.55	5
0	1268	0.55	3
0	1269	0.55	5
0	1270	0.55	8
0	1271	0.55	5
0	1272	0.55	3
0	1273	0.55	5
0	1274	0.55	3
0	1275	0.55	1
0	1276	0.55	1
0	1365	0.6	3
0	1366	0.6	5
0	1367	0.6	3
0	1368	0.6	5
0	1369	0.6	8
0	1370	0.6	5
0	1371	0.6	3
0	1372	0.6	5
0	1373	0.6	3
0	1374	0.6	1
0	1375	0.6	1
0	1387	0.6	3
0	1388	0.6	5
0	1389	0.6	3
0	1390	0.6	5
0	1391	0.6	8
0	1392	0.6	5
0	1393	0.6	3
0	1394	0.6	5
0	1395	0.6	3
0	1396	0.6	1
0	1397	0.6	1
0	1508	0.65	3
0	1509	0.65	5
0	1510	0.65	3
0	1511	0.65	5
0	1512	0.65	8
0	1513	0.65	5
0	1514	0.65	3
0	1515	0.65	5
0	1516	0.65	3
0	1517	0.65	1
0	1518	0.65	1
0	1607	0.7	3
0	1608	0.7	5
0	1609	0.7	3
0	1610	0.7	5
0	1611	0.7	8
0	1612	0.7	5
0	1613	0.7	3
0	1614	0.7	5
0	1615	0.7	3
0	1616	0.7	1
0	1617	0.7	1
0	1629	0.7	3
0	1630	0.7	5
0	1631	0.7	3
0	1632	0.7	5
0	1633	0.7	8
0	1634	0.7	5
0	1635	0.7	3
0	1636	0.7	5
0	1637	0.7	3
0	1638	0.7	1
0	1639	0.7	1
0	1750	0.75	3
0	1751	0.75	5
0	1752	0.75	3
0	1753	0.75	5
0	1754	0.75	8
0	1755	0.75	5
0	1756	0.75	3
0	1757	0.75	5
0	1758	0.75	3
0	1759	0.75	1
0	1760	0.75	1
0	1849	0.8	3
0	1850	0.8	5
0	1851	0.8	3
0	1852	0.8	5
0	1853	0.8	8
0	1854	0.8	5
0	1855	0.8	3
0	1856	0.8	5
0	1857	0.8	3
0	1858	0.8	1
0	1859	0.8	1
0	1871	0.8	3
0	1872	0.8	5
0	1873	0.8	3
0	1874	0.8	5
0	1875	0.8	8
0	1876	0.8	5
0	1877	0.8	3
0	1878	0.8	5
0	1879	0.8	3
0	1880	0.8	1
0	1881	0.8	1
0	1992	0.85	3
0	1993	0.85	5
0	1994	0.85	3
0	1995	0.85	5
0	1996	0.85	8
0	1997	0.85	5
0	1998	0.85	3
0	1999	0.85	5
0	2000	0.85	3
0	2001	0.85	1
0	2002	0.85	1
0	2091	0.9	3
0	2092	0.9	5
0	2093	0.9	3
0	2094	0.9	5
0	2095	0.9	8
0	2096	0.9	5
0	2097	0.9	3
0	2098	0.9	5
0	2099	0.9	3
0	2100	0.9	1
0	2101	0.9	1
0	2113	0.9	3
0	2114	0.9	5
0	2115	0.9	3
0	2116	0.9	5
0	2117	0.9	8
0	2118	0.9	5
0	2119	0.9	3
0	2120	0.9	5
0	2121	0.9	3
0	2122	0.9	1
0	2123	0.9	1
0	2234	0.95	3
0	2235	0.95	5
0	2236	0.95	3
0	2237	0.95	5
0	2238	0.95	8
0	2239	0.95	5
0	2240	0.95	3
0	2241	0.95	5
0	2242	0.95	3
0	2243	0.95	1
0	2244	0.95	1
0	2333	1	3
0	2334	1	5
0	2335	1	3
0	2336	1	5
0	2337	1	8
0	2338	1	5
0	2339	1	3
0	2340	1	5
0	2341	1	3
0	2342	1	1
0	2343	1	1
0	2355	1	3
0	2356	1	5
0	2357	1	3
0	2358	1	5
0	2359	1	8
0	2360	1	5
0	2361	1	3
0	2362	1	5
0	2363	1	3
0	2364	1	1
0	2365	1	1
0	2476	1.05	3
0	2477	1.05	5
0	2478	1.05	3
0	2479	1.05	5
0	2480	1.05	8
0	2481	1.05	5
0	2482	1.05	3
0	2483	1.05	5
0	2484	1.05	3
0	2485	1.05	1
0	2486	1.05	1
0	2586	1.1	3
0	2587	1.1	5
0	2588	1.1	3
0	2589	1.1	5
0	2590	1.1	8
0	2591	1.1	5
0	2592	1.1	3
0	2593	1.1	5
0	2594	1.1	3
0	2595	1.1	1
0	2596	1.1	1
0	2608	1.1	3
0	2609	1.1	5
0	2610	1.1	3
0	2611	1.1	5
0	2612	1.1	8
0	2613	1.1	5
0	2614	1.1	3
0	2615	1.1	5
0	2616	1.1	3
0	2617	1.1	1
0	2618	1.1	1
0	3190	1.15	3
0	3191	1.15	5
0	3192	1.15	3
0	3193	1.15	5
0	3194	1.15	8
0	3195	1.15	5
0	3196	1.15	3
0	3197	1.15	5
0	3198	1.15	3
0	3199	1.15	1
0	3200	1.15	1
0	3607	1.2	3
0	3608	1.2	5
0	3609	1.2	3
0	3610	1.2	5
0	3611	1.2	8
0	3612	1.2	5
0	3613	1.2	3
0	3614	1.2	5
0	3615	1.2	3
0	3616	1.2	1
0	3617	1.2	1
0	3629	1.2	3
0	3630	1.2	5
0	3631	1.2	3
0	3632	1.2	5
0	3633	1.2	8
0	3634	1.2	5
0	3635	1.2	3
0	3636	1.2	5
0	3637	1.2	3
0	3638	1.2	1
0	3639	1.2	1
0	3834	1.25	3
0	3835	1.25	5
0	3836	1.25	3
0	3837	1.25	5
0	3838	1.25	8
0	3839	1.25	5
0	3840	1.25	3
0	3841	1.25	5
0	3842	1.25	3
0	3843	1.25	1
0	3844	1.25	1
0	3951	1.3	3
0	3952	1.3	5
0	3953	1.3	3
0	3954	1.3	5
0	3955	1.3	8
0	3956	1.3	5
0	3957	1.3	3
0	3958	1.3	5
0	3959	1.3	3
0	3960	1.3	1
0	3961	1.3	1
0	3973	1.3	3
0	3974	1.3	5
0	3975	1.3	3
0	3976	1.3	5
0	3977	1.3	8
0	3978	1.3	5
0	3979	1.3	3
0	3980	1.3	5
0	3981	1.3	3
0	3982	1.3	1
0	3983	1.3	1
0	4094	1.35	3
0	4095	1.35	5
0	4096	1.35	3
0	4097	1.35	5
0	4098	1.35	8
0	4099	1.35	5
0	4100	1.35	3
0	4101	1.35	5
0	4102	1.35	3
0	4103	1.35	1
0	4104	1.35	1
0	4193	1.4	3
0	4194	1.4	5
0	4195	1.4	3
0	4196	1.4	5
0	4197	1.4	8
0	4198	1.4	5
0	4199	1.4	3
0	4200	1.4	5
0	4201	1.4	3
0	4202	1.4	1
0	4203	1.4	1
0	4215	1.4	3
0	4216	1.4	5
0	4217	1.4	3
0	4218	1.4	5
0	4219	1.4	8
0	4220	1.4	5
0	4221	1.4	3
0	4222	1.4	5
0	4223	1.4	3
0	4224	1.4	1
0	4225	1.4	1
0	4336	1.45	3
0	4337	1.45	5
0	4338	1.45	3
0	4339	1.45	5
0	4340	1.45	8
0	4341	1.45	5
0	4342	1.45	3
0	4343	1.45	5
0	4344	1.45	3
0	4345	1.45	1
0	4346	1.45	1
0	4435	1.5	3
0	4436	1.5	5
0	4437	1.5	3
0	4438	1.5	5
0	4439	1.5	8
0	4440	1.5	5
0	4441	1.5	3
0	4442	1.5	5
0	4443	1.5	3
0	4444	1.5	1
0	4445	1.5	1
0	4457	1.5	3
0	4458	1.5	5
0	4459	1.5	3
0	4460	1.5	5
0	4461	1.5	8
0	4462	1.5	5
0	4463	1.5	3
0	4464	1.5	5
0	4465	1.5	3
0	4466	1.5	1
0	4467	1.5	1
0	4578	1.55	3
0	4579	1.55	5
0	4580	1.55	3
0	4581	1.55	5
0	4582	1.55	8
0	4583	1.55	5
0	4584	1.55	3
0	4585	1.55	5
0	4586	1.55	3
0	4587	1.55	1
0	4588	1.55	1
0	4677	1.6	3
0	4678	1.6	5
0	4679	1.6	3
0	4680	1.6	5
0	4681	1.6	8
0	4682	1.6	5
0	4683	1.6	3
0	4684	1.6	5
0	4685	1.6	3
0	4686	1.6	1
0	4687	1.6	1
0	4699	1.6	3
0	4700	1.6	5
0	4701	1.6	3
0	4702	1.6	5
0	4703	1.6	8
0	4704	1.6	5
0	4705	1.6	3
0	4706	1.6	5
0	4707	1.6	3
0	4708	1.6	1
0	4709	1.6	1
0	4820	1.65	3
0	4821	1.65	5
0	4822	1.65	3
0	4823	1.65	5
0	4824	1.65	8
0	4825	1.65	5
0	4826	1.65	3
0	4827	1.65	5
0	4828	1.65	3
0	4829	1.65	1
0	4830	1.65	1
0	5301	1.7	3
0	5302	1.7	5
0	5303	1.7	3
0	5304	1.7	5
0	5305	1.7	8
0	5306	1.7	5
0	5307	1.7	3
0	5308	1.7	5
0	5309	1.7	3
0	5310	1.7	1
0	5311	1.7	1
0	5323	1.7	3
0	5324	1.7	5
0	5325	1.7	3
0	5326	1.7	5
0	5327	1.7	8
0	5328	1.7	5
0	5329	1.7	3
0	5330	1.7	5
0	5331	1.7	3
0	5332	1.7	1
0	5333	1.7	1
0	5696	1.75	3
0	5697	1.75	5
0	5698	1.75	3
0	5699	1.75	5
0	5700	1.75	8
0	5701	1.75	5
0	5702	1.75	3
0	5703	1.75	5
0	5704	1.75	3
0	5705	1.75	1
0	5706	1.75	1
0	5891	1.8	3
0	5892	1.8	5
0	5893	1.8	3
0	5894	1.8	5
0	5895	1.8	8
0	5896	1.8	5
0	5897	1.8	3
0	5898	1.8	5
0	5899	1.8	3
0	5900	1.8	1
0	5901	1.8	1
0	5913	1.8	3
0	5914	1.8	5
0	5915	1.8	3
0	5916	1.8	5
0	5917	1.8	8
0	5918	1.8	5
0	5919	1.8	3
0	5920	1.8	5
0	5921	1.8	3
0	5922	1.8	1
0	5923	1.8	1
0	6034	1.85	3
0	6035	1.85	5
0	6036	1.85	3
0	6037	1.85	5
0	6038	1.85	8
0	6039	1.85	5
0	6040	1.85	3
0	6041	1.85	5
0	6042	1.85	3
0	6043	1.85	1
0	6044	1.85	1
0	6156	1.9	3
0	6157	1.9	5
0	6158	1.9	3
0	6159	1.9	5
0	6160	1.9	8
0	6161	1.9	5
0	6162	1.9	3
0	6163	1.9	5
0	6164	1.9	3
0	6165	1.9	1
0	6166	1.9	1
0	6178	1.9	3
0	6179	1.9	5
0	6180	1.9	3
0	6181	1.9	5
0	6182	1.9	8
0	6183	1.9	5
0	6184	1.9	3
0	6185	1.9	5
0	6186	1.9	3
0	6187	1.9	1
0	6188	1.9	1
0	6299	1.95	3
0	6300	1.95	5
0	6301	1.95	3
0	6302	1.95	5
0	6303	1.95	8
0	6304	1.95	5
0	6305	1.95	3
0	6306	1.95	5
0	6307	1.95	3
0	6308	1.95	1
0	6309	1.95	1
0	6398	2	3
0	6399	2	5
0	6400	2	3
0	6401	2	5
0	6402	2	8
0	6403	2	5
0	6404	2	3
0	6405	2	5
0	6406	2	3
0	6407	2	1
0	6408	2	1
0	6420	2	3
0	6421	2	5
0	6422	2	3
0	6423	2	5
0	6424	2	8
0	6425	2	5
0	6426	2	3
0	6427	2	5
0	6428	2	3
0	6429	2	1
0	6430	2	1
0	6541	2.05	3
0	6542	2.05	5
0	6543	2.05	3
0	6544	2.05	5
0	6545	2.05	8
0	6546	2.05	5
0	6547	2.05	3
0	6548	2.05	5
0	6549	2.05	3
0	6550	2.05	1
0	6551	2.05	1
0	6651	2.1	3
0	6652	2.1	5
0	6653	2.1	3
0	6654	2.1	5
0	6655	2.1	8
0	6656	2.1	5
0	6657	2.1	3
0	6658	2.1	5
0	6659	2.1	3
0	6660	2.1	1
0	6661	2.1	1
0	6673	2.1	3
0	6674	2.1	5
0	6675	2.1	3
0	6676	2.1	5
0	6677	2.1	8
0	6678	2.1	5
0	6679	2.1	3
0	6680	2.1	5
0	6681	2.1	3
0	6682	2.1	1
0	6683	2.1	1
0	6805	2.15	3
0	6806	2.15	5
0	6807	2.15	3
0	6808	2.15	5
0	6809	2.15	8
0	6810	2.15	5
0	6811	2.15	3
0	6812	2.15	5
0	6813	2.15	3
0	6814	2.15	1
0	6815	2.15	1
0	6904	2.2	3
0	6905	2.2	5
0	6906	2.2	3
0	6907	2.2	5
0	6908	2.2	8
0	6909	2.2	5
0	6910	2.2	3
0	6911	2.2	5
0	6912	2.2	3
0	6913	2.2	1
0	6914	2.2	1
0	6926	2.2	3
0	6927	2.2	5
0	6928	2.2	3
0	6929	2.2	5
0	6930	2.2	8
0	6931	2.2	5
0	6932	2.2	3
0	6933	2.2	5
0	6934	2.2	3
0	6935	2.2	1
0	6936	2.2	1
0	7454	2.25	3
0	7455	2.25	5
0	7456	2.25	3
0	7457	2.25	5
0	7458	2.25	8
0	7459	2.25	5
0	7460	2.25	3
0	7461	2.25	5
0	7462	2.25	3
0	7463	2.25	1
0	7464	2.25	1
0	7763	2.3	3
0	7764	2.3	5
0	7765	2.3	3
0	7766	2.3	5
0	7767	2.3	8
0	7768	2.3	5
0	7769	2.3	3
0	7770	2.3	5
0	7771	2.3	3
0	7772	2.3	1
0	7773	2.3	1
0	7785	2.3	3
0	7786	2.3	5
0	7787	2.3	3
0	7788	2.3	5
0	7789	2.3	8
0	7790	2.3	5
0	7791	2.3	3
0	7792	2.3	5
0	7793	2.3	3
0	7794	2.3	1
0	7795	2.3	1
0	7942	2.35	3
0	7943	2.35	5
0	7944	2.35	3
0	7945	2.35	5
0	7946	2.35	8
0	7947	2.35	5
0	7948	2.35	3
0	7949	2.35	5
0	7950	2.35	3
0	7951	2.35	1
0	7952	2.35	1
0	8132	2.4	3
0	8133	2.4	5
0	8134	2.4	3
0	8135	2.4	5
0	8136	2.4	8
0	8137	2.4	5
0	8138	2.4	3
0	8139	2.4	5
0	8140	2.4	3
0	8141	2.4	1
0	8142	2.4	1
0	8154	2.4	3
0	8155	2.4	5
0	8156	2.4	3
0	8157	2.4	5
0	8158	2.4	8
0	8159	2.4	5
0	8160	2.4	3
0	8161	2.4	5
0	8162	2.4	3
0	8163	2.4	1
0	8164	2.4	1
0	8298	2.45	3
0	8299	2.45	5
0	8300	2.45	3
0	8301	2.45	5
0	8302	2.45	8
0	8303	2.45	5
0	8304	2.45	3
0	8305	2.45	5
0	8306	2.45	3
0	8307	2.45	1
0	8308	2.45	1
0	8397	2.5	3
0	8398	2.5	5
0	8399	2.5	3
0	8400	2.5	5
0	8401	2.5	8
0	8402	2.5	5
0	8403	2.5	3
0	8404	2.5	5
0	8405	2.5	3
0	8406	2.5	1
0	8407	2.5	1
0	8419	2.5	3
0	8420	2.5	5
0	8421	2.5	3
0	8422	2.5	5
0	8423	2.5	8
0	8424	2.5	5
0	8425	2.5	3
0	8426	2.5	5
0	8427	2.5	3
0	8428	2.5	1
0	8429	2.5	1
0	8540	2.55	3
0	8541	2.55	5
0	8542	2.55	3
0	8543	2.55	5
0	8544	2.55	8
0	8545	2.55	5
0	8546	2.55	3
0	8547	2.55	5
0	8548	2.55	3
0	8549	2.55	1
0	8550	2.55	1
0	8639	2.6	3
0	8640	2.6	5
0	8641	2.6	3
0	8642	2.6	5
0	8643	2.6	8
0	8644	2.6	5
0	8645	2.6	3
0	8646	2.6	5
0	8647	2.6	3
0	8648	2.6	1
0	8649	2.6	1
0	8661	2.6	3
0	8662	2.6	5
0	8663	2.6	3
0	8664	2.6	5
0	8665	2.6	8
0	8666	2.6	5
0	8667	2.6	3
0	8668	2.6	5
0	8669	2.6	3
0	8670	2.6	1
0	8671	2.6	1
0	8782	2.65	3
0	8783	2.65	5
0	8784	2.65	3
0	8785	2.65	5
0	8786	2.65	8
0	8787	2.65	5
0	8788	2.65	3
0	8789	2.65	5
0	8790	2.65	3
0	8791	2.65	1
0	8792	2.65	1
0	8881	2.7	3
0	8882	2.7	5
0	8883	2.7	3
0	8884	2.7	5
0	8885	2.7	8
0	8886	2.7	5
0	8887	2.7	3
0	8888	2.7	5
0	8889	2.7	3
0	8890	2.7	1
0	8891	2.7	1
0	8903	2.7	3
0	8904	2.7	5
0	8905	2.7	3
0	8906	2.7	5
0	8907	2.7	8
0	8908	2.7	5
0	8909	2.7	3
0	8910	2.7	5
0	8911	2.7	3
0	8912	2.7	1
0	8913	2.7	1
0	9069	2.75	3
0	9070	2.75	5
0	9071	2.75	3
0	9072	2.75	5
0	9073	2.75	8
0	9074	2.75	5
0	9075	2.75	3
0	9076	2.75	5
0	9077	2.75	3
0	9078	2.75	1
0	9079	2.75	1
0	9561	2.8	3
0	9562	2.8	5
0	9563	2.8	3
0	9564	2.8	5
0	9565	2.8	8
0	9566	2.8	5
0	9567	2.8	3
0	9568	2.8	5
0	9569	2.8	3
0	9570	2.8	1
0	9571	2.8	1
0	9583	2.8	3
0	9584	2.8	5
0	9585	2.8	3
0	9586	2.8	5
0	9587	2.8	8
0	9588	2.8	5
0	9589	2.8	3
0	9590	2.8	5
0	9591	2.8	3
0	9592	2.8	1
0	9593	2.8	1
0	9866	2.85	3
0	9867	2.85	5
0	9868	2.85	3
0	9869	2.85	5
0	9870	2.85	8
0	9871	2.85	5
0	9872	2.85	3
0	9873	2.85	5
0	9874	2.85	3
0	9875	2.85	1
0	9876	2.85	1
0	9965	2.9	3
0	9966	2.9	5
0	9967	2.9	3
0	9968	2.9	5
0	9969	2.9	8
0	9970	2.9	5
0	9971	2.9	3
0	9972	2.9	5
0	9973	2.9	3
0	9974	2.9	1
0	9975	2.9	1
0	9987	2.9	3
0	9988	2.9	5
0	9989	2.9	3
0	9990	2.9	5
0	9991	2.9	8
0	9992	2.9	5
0	9993	2.9	3
0	9994	2.9	5
0	9995	2.9	3
0	9996	2.9	1
0	9997	2.9	1
0	10200	2.95	3
0	10201	2.95	5
0	10202	2.95	3
0	10203	2.95	5
0	10204	2.95	8
0	10205	2.95	5
0	10206	2.95	3
0	10207	2.95	5
0	10208	2.95	3
0	10209	2.95	1
0	10210	2.95	1
0	10321	3	3
0	10322	3	5
0	10323	3	3
0	10324	3	5
0	10325	3	8
0	10326	3	5
0	10327	3	3
0	10328	3	5
0	10329	3	3
0	10330	3	1
0	10331	3	1
0	10343	3	3
0	10344	3	5
0	10345	3	3
0	10346	3	5
0	10347	3	8
0	10348	3	5
0	10349	3	3
0	10350	3	5
0	10351	3	3
0	10352	3	1
0	10353	3	1
0	10464	3.05	3
0	10465	3.05	5
0	10466	3.05	3
0	10467	3.05	5
0	10468	3.05	8
0	10469	3.05	5
0	10470	3.05	3
0	10471	3.05	5
0	10472	3.05	3
0	10473	3.05	1
0	10474	3.05	1
0	10574	3.1	3
0	10575	3.1	5
0	10576	3.1	3
0	10577	3.1	5
0	10578	3.1	8
0	10579	3.1	5
0	10580	3.1	3
0	10581	3.1	5
0	10582	3.1	3
0	10583	3.1	1
0	10584	3.1	1
0	10596	3.1	3
0	10597	3.1	5
0	10598	3.1	3
0	10599	3.1	5
0	10600	3.1	8
0	10601	3.1	5
0	10602	3.1	3
0	10603	3.1	5
0	10604	3.1	3
0	10605	3.1	1
0	10606	3.1	1
0	10728	3.15	3
0	10729	3.15	5
0	10730	3.15	3
0	10731	3.15	5
0	10732	3.15	8
0	10733	3.15	5
0	10734	3.15	3
0	10735	3.15	5
0	10736	3.15	3
0	10737	3.15	1
0	10738	3.15	1
0	10827	3.2	3
0	10828	3.2	5
0	10829	3.2	3
0	10830	3.2	5
0	10831	3.2	8
0	10832	3.2	5
0	10833	3.2	3
0	10834	3.2	5
0	10835	3.2	3
0	10836	3.2	1
0	10837	3.2	1
0	10849	3.2	3
0	10850	3.2	5
0	10851	3.2	3
0	10852	3.2	5
0	10853	3.2	8
0	10854	3.2	5
0	10855	3.2	3
0	10856	3.2	5
0	10857	3.2	3
0	10858	3.2	1
0	10859	3.2	1
0	10970	3.25	3
0	10971	3.25	5
0	10972	3.25	3
0	10973	3.25	5
0	10974	3.25	8
0	10975	3.25	5
0	10976	3.25	3
0	10977	3.25	5
0	10978	3.25	3
0	10979	3.25	1
0	10980	3.25	1
0	11125	3.3	3
0	11126	3.3	5
0	11127	3.3	3
0	11128	3.3	5
0	11129	3.3	8
0	11130	3.3	5
0	11131	3.3	3
0	11132	3.3	5
0	11133	3.3	3
0	11134	3.3	1
0	11135	3.3	1
0	11147	3.3	3
0	11148	3.3	5
0	11149	3.3	3
0	11150	3.3	5
0	11151	3.3	8
0	11152	3.3	5
0	11153	3.3	3
0	11154	3.3	5
0	11155	3.3	3
0	11156	3.3	1
0	11157	3.3	1
0	11662	3.35	3
0	11663	3.35	5
0	11664	3.35	3
0	11665	3.35	5
0	11666	3.35	8
0	11667	3.35	5
0	11668	3.35	3
0	11669	3.35	5
0	11670	3.35	3
0	11671	3.35	1
0	11672	3.35	1
0	11854	3.4	3
0	11855	3.4	5
0	11856	3.4	3
0	11857	3.4	5
0	11858	3.4	8
0	11859	3.4	5
0	11860	3.4	3
0	11861	3.4	5
0	11862	3.4	3
0	11863	3.4	1
0	11864	3.4	1
0	11876	3.4	3
0	11877	3.4	5
0	11878	3.4	3
0	11879	3.4	5
0	11880	3.4	8
0	11881	3.4	5
0	11882	3.4	3
0	11883	3.4	5
0	11884	3.4	3
0	11885	3.4	1
0	11886	3.4	1
0	12002	3.45	3
0	12003	3.45	5
0	12004	3.45	3
0	12005	3.45	5
0	12006	3.45	8
0	12007	3.45	5
0	12008	3.45	3
0	12009	3.45	5
0	12010	3.45	3
0	12011	3.45	1
0	12012	3.45	1
0	12187	3.5	3
0	12188	3.5	5
0	12189	3.5	3
0	12190	3.5	5
0	12191	3.5	8
0	12192	3.5	5
0	12193	3.5	3
0	12194	3.5	5
0	12195	3.5	3
0	12196	3.5	1
0	12197	3.5	1
0	12209	3.5	3
0	12210	3.5	5
0	12211	3.5	3
0	12212	3.5	5
0	12213	3.5	8
0	12214	3.5	5
0	12215	3.5	3
0	12216	3.5	5
0	12217	3.5	3
0	12218	3.5	1
0	12219	3.5	1
0	12335	3.55	3
0	12336	3.55	5
0	12337	3.55	3
0	12338	3.55	5
0	12339	3.55	8
0	12340	3.55	5
0	12341	3.55	3
0	12342	3.55	5
0	12343	3.55	3
0	12344	3.55	1
0	12345	3.55	1
0	12434	3.6	3
0	12435	3.6	5
0	12436	3.6	3
0	12437	3.6	5
0	12438	3.6	8
0	12439	3.6	5
0	12440	3.6	3
0	12441	3.6	5
0	12442	3.6	3
0	12443	3.6	1
0	12444	3.6	1
0	12456	3.6	3
0	12457	3.6	5
0	12458	3.6	3
0	12459	3.6	5
0	12460	3.6	8
0	12461	3.6	5
0	12462	3.6	3
0	12463	3.6	5
0	12464	3.6	3
0	12465	3.6	1
0	12466	3.6	1
0	12577	3.65	3
0	12578	3.65	5
0	12579	3.65	3
0	12580	3.65	5
0	12581	3.65	8
0	12582	3.65	5
0	12583	3.65	3
0	12584	3.65	5
0	12585	3.65	3
0	12586	3.65	1
0	12587	3.65	1
0	12676	3.7	3
0	12677	3.7	5
0	12678	3.7	3
0	12679	3.7	5
0	12680	3.7	8
0	12681	3.7	5
0	12682	3.7	3
0	12683	3.7	5
0	12684	3.7	3
0	12685	3.7	1
0	12686	3.7	1
0	12698	3.7	3
0	12699	3.7	5
0	12700	3.7	3
0	12701	3.7	5
0	12702	3.7	8
0	12703	3.7	5
0	12704	3.7	3
0	12705	3.7	5
0	12706	3.7	3
0	12707	3.7	1
0	12708	3.7	1
0	12819	3.75	3
0	12820	3.75	5
0	12821	3.75	3
0	12822	3.75	5
0	12823	3.75	8
0	12824	3.75	5
0	12825	3.75	3
0	12826	3.75	5
0	12827	3.75	3
0	12828	3.75	1
0	12829	3.75	1
0	12918	3.8	3
0	12919	3.8	5
0	12920	3.8	3
0	12921	3.8	5
0	12922	3.8	8
0	12923	3.8	5
0	12924	3.8	3
0	12925	3.8	5
0	12926	3.8	3
0	12927	3.8	1
0	12928	3.8	1
0	12940	3.8	3
0	12941	3.8	5
0	12942	3.8	3
0	12943	3.8	5
0	12944	3.8	8
0	12945	3.8	5
0	12946	3.8	3
0	12947	3.8	5
0	12948	3.8	3
0	12949	3.8	1
0	12950	3.8	1
0	13112	3.85	3
0	13113	3.85	5
0	13114	3.85	3
0	13115	3.85	5
0	13116	3.85	8
0	13117	3.85	5
0	13118	3.85	3
0	13119	3.85	5
0	13120	3.85	3
0	13121	3.85	1
0	13122	3.85	1
0	13551	3.9	3
0	13552	3.9	5
0	13553	3.9	3
0	13554	3.9	5
0	13555	3.9	8
0	13556	3.9	5
0	13557	3.9	3
0	13558	3.9	5
0	13559	3.9	3
0	13560	3.9	1
0	13561	3.9	1
0	13573	3.9	3
0	13574	3.9	5
0	13575	3.9	3
0	13576	3.9	5
0	13577	3.9	8
0	13578	3.9	5
0	13579	3.9	3
0	13580	3.9	5
0	13581	3.9	3
0	13582	3.9	1
0	13583	3.9	1
0	13742	3.95	3
0	13743	3.95	5
0	13744	3.95	3
0	13745	3.95	5
0	13746	3.95	8
0	13747	3.95	5
0	13748	3.95	3
0	13749	3.95	5
0	13750	3.95	3
0	13751	3.95	1
0	13752	3.95	1
0	13927	4	3
0	13928	4	5
0	13929	4	3
0	13930	4	5
0	13931	4	8
0	13932	4	5
0	13933	4	3
0	13934	4	5
0	13935	4	3
0	13936	4	1
0	13937	4	1
0	13949	4	3
0	13950	4	5
0	13951	4	3
0	13952	4	5
0	13953	4	8
0	13954	4	5
0	13955	4	3
0	13956	4	5
0	13957	4	3
0	13958	4	1
0	13959	4	1
0	14139	4.05	3
0	14140	4.05	5
0	14141	4.05	3
0	14142	4.05	5
0	14143	4.05	8
0	14144	4.05	5
0	14145	4.05	3
0	14146	4.05	5
0	14147	4.05	3
0	14148	4.05	1
0	14149	4.05	1
0	14249	4.1	3
0	14250	4.1	5
0	14251	4.1	3
0	14252	4.1	5
0	14253	4.1	8
0	14254	4.1	5
0	14255	4.1	3
0	14256	4.1	5
0	14257	4.1	3
0	14258	4.1	1
0	14259	4.1	1
0	14271	4.1	3
0	14272	4.1	5
0	14273	4.1	3
0	14274	4.1	5
0	14275	4.1	8
0	14276	4.1	5
0	14277	4.1	3
0	14278	4.1	5
0	14279	4.1	3
0	14280	4.1	1
0	14281	4.1	1
0	14426	4.15	3
0	14427	4.15	5
0	14428	4.15	3
0	14429	4.15	5
0	14430	4.15	8
0	14431	4.15	5
0	14432	4.15	3
0	14433	4.15	5
0	14434	4.15	3
0	14435	4.15	1
0	14436	4.15	1
0	14525	4.2	3
0	14526	4.2	5
0	14527	4.2	3
0	14528	4.2	5
0	14529	4.2	8
0	14530	4.2	5
0	14531	4.2	3
0	14532	4.2	5
0	14533	4.2	3
0	14534	4.2	1
0	14535	4.2	1
0	14547	4.2	3
0	14548	4.2	5
0	14549	4.2	3
0	14550	4.2	5
0	14551	4.2	8
0	14552	4.2	5
0	14553	4.2	3
0	14554	4.2	5
0	14555	4.2	3
0	14556	4.2	1
0	14557	4.2	1
0	14668	4.25	3
0	14669	4.25	5
0	14670	4.25	3
0	14671	4.25	5
0	14672	4.25	8
0	14673	4.25	5
0	14674	4.25	3
0	14675	4.25	5
0	14676	4.25	3
0	14677	4.25	1
0	14678	4.25	1
0	14767	4.3	3
0	14768	4.3	5
0	14769	4.3	3
0	14770	4.3	5
0	14771	4.3	8
0	14772	4.3	5
0	14773	4.3	3
0	14774	4.3	5
0	14775	4.3	3
0	14776	4.3	1
0	14777	4.3	1
0	14789	4.3	3
0	14790	4.3	5
0	14791	4.3	3
0	14792	4.3	5
0	14793	4.3	8
0	14794	4.3	5
0	14795	4.3	3
0	14796	4.3	5
0	14797	4.3	3
0	14798	4.3	1
0	14799	4.3	1
0	14910	4.35	3
0	14911	4.35	5
0	14912	4.35	3
0	14913	4.35	5
0	14914	4.35	8
0	14915	4.35	5
0	14916	4.35	3
0	14917	4.35	5
0	14918	4.35	3
0	14919	4.35	1
0	14920	4.35	1
0	15106	4.4	3
0	15107	4.4	5
0	15108	4.4	3
0	15109	4.4	5
0	15110	4.4	8
0	15111	4.4	5
0	15112	4.4	3
0	15113	4.4	5
0	15114	4.4	3
0	15115	4.4	1
0	15116	4.4	1
0	15128	4.4	3
0	15129	4.4	5
0	15130	4.4	3
0	15131	4.4	5
0	15132	4.4	8
0	15133	4.4	5
0	15134	4.4	3
0	15135	4.4	5
0	15136	4.4	3
0	15137	4.4	1
0	15138	4.4	1
0	15557	4.45	3
0	15558	4.45	5
0	15559	4.45	3
0	15560	4.45	5
0	15561	4.45	8
0	15562	4.45	5
0	15563	4.45	3
0	15564	4.45	5
0	15565	4.45	3
0	15566	4.45	1
0	15567	4.45	1
0	15720	4.5	3
0	15721	4.5	5
0	15722	4.5	3
0	15723	4.5	5
0	15724	4.5	8
0	15725	4.5	5
0	15726	4.5	3
0	15727	4.5	5
0	15728	4.5	3
0	15729	4.5	1
0	15730	4.5	1
0	15742	4.5	3
0	15743	4.5	5
0	15744	4.5	3
0	15745	4.5	5
0	15746	4.5	8
0	15747	4.5	5
0	15748	4.5	3
0	15749	4.5	5
0	15750	4.5	3
0	15751	4.5	1
0	15752	4.5	1
0	15925	4.55	3
0	15926	4.55	5
0	15927	4.55	3
0	15928	4.55	5
0	15929	4.55	8
0	15930	4.55	5
0	15931	4.55	3
0	15932	4.55	5
0	15933	4.55	3
0	15934	4.55	1
0	15935	4.55	1
0	16116	4.6	3
0	16117	4.6	5
0	16118	4.6	3
0	16119	4.6	5
0	16120	4.6	8
0	16121	4.6	5
0	16122	4.6	3
0	16123	4.6	5
0	16124	4.6	3
0	16125	4.6	1
0	16126	4.6	1
0	16138	4.6	3
0	16139	4.6	5
0	16140	4.6	3
0	16141	4.6	5
0	16142	4.6	8
0	16143	4.6	5
0	16144	4.6	3
0	16145	4.6	5
0	16146	4.6	3
0	16147	4.6	1
0	16148	4.6	1
0	16282	4.65	3
0	16283	4.65	5
0	16284	4.65	3
0	16285	4.65	5
0	16286	4.65	8
0	16287	4.65	5
0	16288	4.65	3
0	16289	4.65	5
0	16290	4.65	3
0	16291	4.65	1
0	16292	4.65	1
0	16404	4.7	3
0	16405	4.7	5
0	16406	4.7	3
0	16407	4.7	5
0	16408	4.7	8
0	16409	4.7	5
0	16410	4.7	3
0	16411	4.7	5
0	16412	4.7	3
0	16413	4.7	1
0	16414	4.7	1
0	16426	4.7	3
0	16427	4.7	5
0	16428	4.7	3
0	16429	4.7	5
0	16430	4.7	8
0	16431	4.7	5
0	16432	4.7	3
0	16433	4.7	5
0	16434	4.7	3
0	16435	4.7	1
0	16436	4.7	1
0	16547	4.75	3
0	16548	4.75	5
0	16549	4.75	3
0	16550	4.75	5
0	16551	4.75	8
0	16552	4.75	5
0	16553	4.75	3
0	16554	4.75	5
0	16555	4.75	3
0	16556	4.75	1
0	16557	4.75	1
0	16646	4.8	3
0	16647	4.8	5
0	16648	4.8	3
0	16649	4.8	5
0	16650	4.8	8
0	16651	4.8	5
0	16652	4.8	3
0	16653	4.8	5
0	16654	4.8	3
0	16655	4.8	1
0	16656	4.8	1
0	16668	4.8	3
0	16669	4.8	5
0	16670	4.8	3
0	16671	4.8	5
0	16672	4.8	8
0	16673	4.8	5
0	16674	4.8	3
0	16675	4.8	5
0	16676	4.8	3
0	16677	4.8	1
0	16678	4.8	1
0	16789	4.85	3
0	16790	4.85	5
0	16791	4.85	3
0	16792	4.85	5
0	16793	4.85	8
0	16794	4.85	5
0	16795	4.85	3
0	16796	4.85	5
0	16797	4.85	3
0	16798	4.85	1
0	16799	4.85	1
0	16911	4.9	3
0	16912	4.9	5
0	16913	4.9	3
0	16914	4.9	5
0	16915	4.9	8
0	16916	4.9	5
0	16917	4.9	3
0	16918	4.9	5
0	16919	4.9	3
0	16920	4.9	1
0	16921	4.9	1
0	16933	4.9	3
0	16934	4.9	5
0	16935	4.9	3
0	16936	4.9	5
0	16937	4.9	8
0	16938	4.9	5
0	16939	4.9	3
0	16940	4.9	5
0	16941	4.9	3
0	16942	4.9	1
0	16943	4.9	1
0	17128	4.95	3
0	17129	4.95	5
0	17130	4.95	3
0	17131	4.95	5
0	17132	4.95	8
0	17133	4.95	5
0	17134	4.95	3
0	17135	4.95	5
0	17136	4.95	3
0	17137	4.95	1
0	17138	4.95	1
0	17542	5	3
0	17543	5	5
0	17544	5	3
0	17545	5	5
0	17546	5	8
0	17547	5	5
0	17548	5	3
0	17549	5	5
0	17550	5	3
0	17551	5	1
0	17552	5	1
0	17564	5	3
0	17565	5	5
0	17566	5	3
0	17567	5	5
0	17568	5	8
0	17569	5	5
0	17570	5	3
0	17571	5	5
0	17572	5	3
0	17573	5	1
0	17574	5	1
0	17742	5.05	3
0	17743	5.05	5
0	17744	5.05	3
0	17745	5.05	5
0	17746	5.05	8
0	17747	5.05	5
0	17748	5.05	3
0	17749	5.05	5
0	17750	5.05	3
0	17751	5.05	1
0	17752	5.05	1
0	17942	5.1	3
0	17943	5.1	5
0	17944	5.1	3
0	17945	5.1	5
0	17946	5.1	8
0	17947	5.1	5
0	17948	5.1	3
0	17949	5.1	5
0	17950	5.1	3
0	17951	5.1	1
0	17952	5.1	1
0	17964	5.1	3
0	17965	5.1	5
0	17966	5.1	3
0	17967	5.1	5
0	17968	5.1	8
0	17969	5.1	5
0	17970	5.1	3
0	17971	5.1	5
0	17972	5.1	3
0	17973	5.1	1
0	17974	5.1	1
0	18215	5.15	3
0	18216	5.15	5
0	18217	5.15	3
0	18218	5.15	5
0	18219	5.15	8
0	18220	5.15	5
0	18221	5.15	3
0	18222	5.15	5
0	18223	5.15	3
0	18224	5.15	1
0	18225	5.15	1
0	18367	5.2	3
0	18368	5.2	5
0	18369	5.2	3
0	18370	5.2	5
0	18371	5.2	8
0	18372	5.2	5
0	18373	5.2	3
0	18374	5.2	5
0	18375	5.2	3
0	18376	5.2	1
0	18377	5.2	1
0	18389	5.2	3
0	18390	5.2	5
0	18391	5.2	3
0	18392	5.2	5
0	18393	5.2	8
0	18394	5.2	5
0	18395	5.2	3
0	18396	5.2	5
0	18397	5.2	3
0	18398	5.2	1
0	18399	5.2	1
0	18533	5.25	3
0	18534	5.25	5
0	18535	5.25	3
0	18536	5.25	5
0	18537	5.25	8
0	18538	5.25	5
0	18539	5.25	3
0	18540	5.25	5
0	18541	5.25	3
0	18542	5.25	1
0	18543	5.25	1
0	18632	5.3	3
0	18633	5.3	5
0	18634	5.3	3
0	18635	5.3	5
0	18636	5.3	8
0	18637	5.3	5
0	18638	5.3	3
0	18639	5.3	5
0	18640	5.3	3
0	18641	5.3	1
0	18642	5.3	1
0	18654	5.3	3
0	18655	5.3	5
0	18656	5.3	3
0	18657	5.3	5
0	18658	5.3	8
0	18659	5.3	5
0	18660	5.3	3
0	18661	5.3	5
0	18662	5.3	3
0	18663	5.3	1
0	18664	5.3	1
0	18775	5.35	3
0	18776	5.35	5
0	18777	5.35	3
0	18778	5.35	5
0	18779	5.35	8
0	18780	5.35	5
0	18781	5.35	3
0	18782	5.35	5
0	18783	5.35	3
0	18784	5.35	1
0	18785	5.35	1
0	18874	5.4	3
0	18875	5.4	5
0	18876	5.4	3
0	18877	5.4	5
0	18878	5.4	8
0	18879	5.4	5
0	18880	5.4	3
0	18881	5.4	5
0	18882	5.4	3
0	18883	5.4	1
0	18884	5.4	1
0	18896	5.4	3
0	18897	5.4	5
0	18898	5.4	3
0	18899	5.4	5
0	18900	5.4	8
0	18901	5.4	5
0	18902	5.4	3
0	18903	5.4	5
0	18904	5.4	3
0	18905	5.4	1
0	18906	5.4	1
0	19022	5.45	3
0	19023	5.45	5
0	19024	5.45	3
0	19025	5.45	5
0	19026	5.45	8
0	19027	5.45	5
0	19028	5.45	3
0	19029	5.45	5
0	19030	5.45	3
0	19031	5.45	1
0	19032	5.45	1
0	19183	5.5	3
0	19184	5.5	5
0	19185	5.5	3
0	19186	5.5	5
0	19187	5.5	8
0	19188	5.5	5
0	19189	5.5	3
0	19190	5.5	5
0	19191	5.5	3
0	19192	5.5	1
0	19193	5.5	1
0	19205	5.5	3
0	19206	5.5	5
0	19207	5.5	3
0	19208	5.5	5
0	19209	5.5	8
0	19210	5.5	5
0	19211	5.5	3
0	19212	5.5	5
0	19213	5.5	3
0	19214	5.5	1
0	19215	5.5	1
0	19708	5.55	3
0	19709	5.55	5
0	19710	5.55	3
0	19711	5.55	5
0	19712	5.55	8
0	19713	5.55	5
0	19714	5.55	3
0	19715	5.55	5
0	19716	5.55	3
0	19717	5.55	1
0	19718	5.55	1
0	20062	5.6	3
0	20063	5.6	5
0	20064	5.6	3
0	20065	5.6	5
0	20066	5.6	8
0	20067	5.6	5
0	20068	5.6	3
0	20069	5.6	5
0	20070	5.6	3
0	20071	5.6	1
0	20072	5.6	1
0	20084	5.6	3
0	20085	5.6	5
0	20086	5.6	3
0	20087	5.6	5
0	20088	5.6	8
0	20089	5.6	5
0	20090	5.6	3
0	20091	5.6	5
0	20092	5.6	3
0	20093	5.6	1
0	20094	5.6	1
0	20581	5.65	3
0	20582	5.65	5
0	20583	5.65	3
0	20584	5.65	5
0	20585	5.65	8
0	20586	5.65	5
0	20587	5.65	3
0	20588	5.65	5
0	20589	5.65	3
0	20590	5.65	1
0	20591	5.65	1
0	20897	5.7	3
0	20898	5.7	5
0	20899	5.7	3
0	20900	5.7	5
0	20901	5.7	8
0	20902	5.7	5
0	20903	5.7	3
0	20904	5.7	5
0	20905	5.7	3
0	20906	5.7	1
0	20907	5.7	1
0	20919	5.7	3
0	20920	5.7	5
0	20921	5.7	3
0	20922	5.7	5
0	20923	5.7	8
0	20924	5.7	5
0	20925	5.7	3
0	20926	5.7	5
0	20927	5.7	3
0	20928	5.7	1
0	20929	5.7	1
0	21109	5.75	3
0	21110	5.75	5
0	21111	5.75	3
0	21112	5.75	5
0	21113	5.75	8
0	21114	5.75	5
0	21115	5.75	3
0	21116	5.75	5
0	21117	5.75	3
0	21118	5.75	1
0	21119	5.75	1
0	21277	5.8	3
0	21278	5.8	5
0	21279	5.8	3
0	21280	5.8	5
0	21281	5.8	8
0	21282	5.8	5
0	21283	5.8	3
0	21284	5.8	5
0	21285	5.8	3
0	21286	5.8	1
0	21287	5.8	1
0	21299	5.8	3
0	21300	5.8	5
0	21301	5.8	3
0	21302	5.8	5
0	21303	5.8	8
0	21304	5.8	5
0	21305	5.8	3
0	21306	5.8	5
0	21307	5.8	3
0	21308	5.8	1
0	21309	5.8	1
0	21420	5.85	3
0	21421	5.85	5
0	21422	5.85	3
0	21423	5.85	5
0	21424	5.85	8
0	21425	5.85	5
0	21426	5.85	3
0	21427	5.85	5
0	21428	5.85	3
0	21429	5.85	1
0	21430	5.85	1
0	21519	5.9	3
0	21520	5.9	5
0	21521	5.9	3
0	21522	5.9	5
0	21523	5.9	8
0	21524	5.9	5
0	21525	5.9	3
0	21526	5.9	5
0	21527	5.9	3
0	21528	5.9	1
0	21529	5.9	1
0	21541	5.9	3
0	21542	5.9	5
0	21543	5.9	3
0	21544	5.9	5
0	21545	5.9	8
0	21546	5.9	5
0	21547	5.9	3
0	21548	5.9	5
0	21549	5.9	3
0	21550	5.9	1
0	21551	5.9	1
0	21662	5.95	3
0	21663	5.95	5
0	21664	5.95	3
0	21665	5.95	5
0	21666	5.95	8
0	21667	5.95	5
0	21668	5.95	3
0	21669	5.95	5
0	21670	5.95	3
0	21671	5.95	1
0	21672	5.95	1
0	21795	6	3
0	21796	6	5
0	21797	6	3
0	21798	6	5
0	21799	6	8
0	21800	6	5
0	21801	6	3
0	21802	6	5
0	21803	6	3
0	21804	6	1
0	21805	6	1
0	21817	6	3
0	21818	6	5
0	21819	6	3
0	21820	6	5
0	21821	6	8
0	21822	6	5
0	21823	6	3
0	21824	6	5
0	21825	6	3
0	21826	6	1
0	21827	6	1
0	21978	6.05	3
0	21979	6.05	5
0	21980	6.05	3
0	21981	6.05	5
0	21982	6.05	8
0	21983	6.05	5
0	21984	6.05	3
0	21985	6.05	5
0	21986	6.05	3
0	21987	6.05	1
0	21988	6.05	1
0	22387	6.1	3
0	22388	6.1	5
0	22389	6.1	3
0	22390	6.1	5
0	22391	6.1	8
0	22392	6.1	5
0	22393	6.1	3
0	22394	6.1	5
0	22395	6.1	3
0	22396	6.1	1
0	22397	6.1	1
0	22409	6.1	3
0	22410	6.1	5
0	22411	6.1	3
0	22412	6.1	5
0	22413	6.1	8
0	22414	6.1	5
0	22415	6.1	3
0	22416	6.1	5
0	22417	6.1	3
0	22418	6.1	1
0	22419	6.1	1
0	22719	6.15	3
0	22720	6.15	5
0	22721	6.15	3
0	22722	6.15	5
0	22723	6.15	8
0	22724	6.15	5
0	22725	6.15	3
0	22726	6.15	5
0	22727	6.15	3
0	22728	6.15	1
0	22729	6.15	1
0	23107	6.2	3
0	23108	6.2	5
0	23109	6.2	3
0	23110	6.2	5
0	23111	6.2	8
0	23112	6.2	5
0	23113	6.2	3
0	23114	6.2	5
0	23115	6.2	3
0	23116	6.2	1
0	23117	6.2	1
0	23129	6.2	3
0	23130	6.2	5
0	23131	6.2	3
0	23132	6.2	5
0	23133	6.2	8
0	23134	6.2	5
0	23135	6.2	3
0	23136	6.2	5
0	23137	6.2	3
0	23138	6.2	1
0	23139	6.2	1
0	23468	6.25	3
0	23469	6.25	5
0	23470	6.25	3
0	23471	6.25	5
0	23472	6.25	8
0	23473	6.25	5
0	23474	6.25	3
0	23475	6.25	5
0	23476	6.25	3
0	23477	6.25	1
0	23478	6.25	1
0	23613	6.3	3
0	23614	6.3	5
0	23615	6.3	3
0	23616	6.3	5
0	23617	6.3	8
0	23618	6.3	5
0	23619	6.3	3
0	23620	6.3	5
0	23621	6.3	3
0	23622	6.3	1
0	23623	6.3	1
0	23635	6.3	3
0	23636	6.3	5
0	23637	6.3	3
0	23638	6.3	5
0	23639	6.3	8
0	23640	6.3	5
0	23641	6.3	3
0	23642	6.3	5
0	23643	6.3	3
0	23644	6.3	1
0	23645	6.3	1
0	23825	6.35	3
0	23826	6.35	5
0	23827	6.35	3
0	23828	6.35	5
0	23829	6.35	8
0	23830	6.35	5
0	23831	6.35	3
0	23832	6.35	5
0	23833	6.35	3
0	23834	6.35	1
0	23835	6.35	1
0	23924	6.4	3
0	23925	6.4	5
0	23926	6.4	3
0	23927	6.4	5
0	23928	6.4	8
0	23929	6.4	5
0	23930	6.4	3
0	23931	6.4	5
0	23932	6.4	3
0	23933	6.4	1
0	23934	6.4	1
0	23946	6.4	3
0	23947	6.4	5
0	23948	6.4	3
0	23949	6.4	5
0	23950	6.4	8
0	23951	6.4	5
0	23952	6.4	3
0	23953	6.4	5
0	23954	6.4	3
0	23955	6.4	1
0	23956	6.4	1
0	24067	6.45	3
0	24068	6.45	5
0	24069	6.45	3
0	24070	6.45	5
0	24071	6.45	8
0	24072	6.45	5
0	24073	6.45	3
0	24074	6.45	5
0	24075	6.45	3
0	24076	6.45	1
0	24077	6.45	1
0	24177	6.5	3
0	24178	6.5	5
0	24179	6.5	3
0	24180	6.5	5
0	24181	6.5	8
0	24182	6.5	5
0	24183	6.5	3
0	24184	6.5	5
0	24185	6.5	3
0	24186	6.5	1
0	24187	6.5	1
0	24199	6.5	3
0	24200	6.5	5
0	24201	6.5	3
0	24202	6.5	5
0	24203	6.5	8
0	24204	6.5	5
0	24205	6.5	3
0	24206	6.5	5
0	24207	6.5	3
0	24208	6.5	1
0	24209	6.5	1
0	24366	6.55	3
0	24367	6.55	5
0	24368	6.55	3
0	24369	6.55	5
0	24370	6.55	8
0	24371	6.55	5
0	24372	6.55	3
0	24373	6.55	5
0	24374	6.55	3
0	24375	6.55	1
0	24376	6.55	1
0	24505	6.6	3
0	24506	6.6	5
0	24507	6.6	3
0	24508	6.6	5
0	24509	6.6	8
0	24510	6.6	5
0	24511	6.6	3
0	24512	6.6	5
0	24513	6.6	3
0	24514	6.6	1
0	24515	6.6	1
0	24527	6.6	3
0	24528	6.6	5
0	24529	6.6	3
0	24530	6.6	5
0	24531	6.6	8
0	24532	6.6	5
0	24533	6.6	3
0	24534	6.6	5
0	24535	6.6	3
0	24536	6.6	1
0	24537	6.6	1
0	24986	6.65	3
0	24987	6.65	5
0	24988	6.65	3
0	24989	6.65	5
0	24990	6.65	8
0	24991	6.65	5
0	24992	6.65	3
0	24993	6.65	5
0	24994	6.65	3
0	24995	6.65	1
0	24996	6.65	1
0	25245	6.7	3
0	25246	6.7	5
0	25247	6.7	3
0	25248	6.7	5
0	25249	6.7	8
0	25250	6.7	5
0	25251	6.7	3
0	25252	6.7	5
0	25253	6.7	3
0	25254	6.7	1
0	25255	6.7	1
0	25267	6.7	3
0	25268	6.7	5
0	25269	6.7	3
0	25270	6.7	5
0	25271	6.7	8
0	25272	6.7	5
0	25273	6.7	3
0	25274	6.7	5
0	25275	6.7	3
0	25276	6.7	1
0	25277	6.7	1
0	25557	6.75	3
0	25558	6.75	5
0	25559	6.75	3
0	25560	6.75	5
0	25561	6.75	8
0	25562	6.75	5
0	25563	6.75	3
0	25564	6.75	5
0	25565	6.75	3
0	25566	6.75	1
0	25567	6.75	1
0	25790	6.8	3
0	25791	6.8	5
0	25792	6.8	3
0	25793	6.8	5
0	25794	6.8	8
0	25795	6.8	5
0	25796	6.8	3
0	25797	6.8	5
0	25798	6.8	3
0	25799	6.8	1
0	25800	6.8	1
0	25812	6.8	3
0	25813	6.8	5
0	25814	6.8	3
0	25815	6.8	5
0	25816	6.8	8
0	25817	6.8	5
0	25818	6.8	3
0	25819	6.8	5
0	25820	6.8	3
0	25821	6.8	1
0	25822	6.8	1
0	25956	6.85	3
0	25957	6.85	5
0	25958	6.85	3
0	25959	6.85	5
0	25960	6.85	8
0	25961	6.85	5
0	25962	6.85	3
0	25963	6.85	5
0	25964	6.85	3
0	25965	6.85	1
0	25966	6.85	1
0	26101	6.9	3
0	26102	6.9	5
0	26103	6.9	3
0	26104	6.9	5
0	26105	6.9	8
0	26106	6.9	5
0	26107	6.9	3
0	26108	6.9	5
0	26109	6.9	3
0	26110	6.9	1
0	26111	6.9	1
0	26123	6.9	3
0	26124	6.9	5
0	26125	6.9	3
0	26126	6.9	5
0	26127	6.9	8
0	26128	6.9	5
0	26129	6.9	3
0	26130	6.9	5
0	26131	6.9	3
0	26132	6.9	1
0	26133	6.9	1
0	26244	6.95	3
0	26245	6.95	5
0	26246	6.95	3
0	26247	6.95	5
0	26248	6.95	8
0	26249	6.95	5
0	26250	6.95	3
0	26251	6.95	5
0	26252	6.95	3
0	26253	6.95	1
0	26254	6.95	1
0	26354	7	3
0	26355	7	5
0	26356	7	3
0	26357	7	5
0	26358	7	8
0	26359	7	5
0	26360	7	3
0	26361	7	5
0	26362	7	3
0	26363	7	1
0	26364	7	1
0	26376	7	3
0	26377	7	5
0	26378	7	3
0	26379	7	5
0	26380	7	8
0	26381	7	5
0	26382	7	3
0	26383	7	5
0	26384	7	3
0	26385	7	1
0	26386	7	1
0	26497	7.05	3
0	26498	7.05	5
0	26499	7.05	3
0	26500	7.05	5
0	26501	7.05	8
0	26502	7.05	5
0	26503	7.05	3
0	26504	7.05	5
0	26505	7.05	3
0	26506	7.05	1
0	26507	7.05	1
0	26652	7.1	3
0	26653	7.1	5
0	26654	7.1	3
0	26655	7.1	5
0	26656	7.1	8
0	26657	7.1	5
0	26658	7.1	3
0	26659	7.1	5
0	26660	7.1	3
0	26661	7.1	1
0	26662	7.1	1
0	26674	7.1	3
0	26675	7.1	5
0	26676	7.1	3
0	26677	7.1	5
0	26678	7.1	8
0	26679	7.1	5
0	26680	7.1	3
0	26681	7.1	5
0	26682	7.1	3
0	26683	7.1	1
0	26684	7.1	1
0	26853	7.15	3
0	26854	7.15	5
0	26855	7.15	3
0	26856	7.15	5
0	26857	7.15	8
0	26858	7.15	5
0	26859	7.15	3
0	26860	7.15	5
0	26861	7.15	3
0	26862	7.15	1
0	26863	7.15	1
0	27237	7.2	3
0	27238	7.2	5
0	27239	7.2	3
0	27240	7.2	5
0	27241	7.2	8
0	27242	7.2	5
0	27243	7.2	3
0	27244	7.2	5
0	27245	7.2	3
0	27246	7.2	1
0	27247	7.2	1
0	27259	7.2	3
0	27260	7.2	5
0	27261	7.2	3
0	27262	7.2	5
0	27263	7.2	8
0	27264	7.2	5
0	27265	7.2	3
0	27266	7.2	5
0	27267	7.2	3
0	27268	7.2	1
0	27269	7.2	1
0	27587	7.25	3
0	27588	7.25	5
0	27589	7.25	3
0	27590	7.25	5
0	27591	7.25	8
0	27592	7.25	5
0	27593	7.25	3
0	27594	7.25	5
0	27595	7.25	3
0	27596	7.25	1
0	27597	7.25	1
0	27931	7.3	3
0	27932	7.3	5
0	27933	7.3	3
0	27934	7.3	5
0	27935	7.3	8
0	27936	7.3	5
0	27937	7.3	3
0	27938	7.3	5
0	27939	7.3	3
0	27940	7.3	1
0	27941	7.3	1
0	27953	7.3	3
0	27954	7.3	5
0	27955	7.3	3
0	27956	7.3	5
0	27957	7.3	8
0	27958	7.3	5
0	27959	7.3	3
0	27960	7.3	5
0	27961	7.3	3
0	27962	7.3	1
0	27963	7.3	1
0	28198	7.35	3
0	28199	7.35	5
0	28200	7.35	3
0	28201	7.35	5
0	28202	7.35	8
0	28203	7.35	5
0	28204	7.35	3
0	28205	7.35	5
0	28206	7.35	3
0	28207	7.35	1
0	28208	7.35	1
0	28320	7.4	3
0	28321	7.4	5
0	28322	7.4	3
0	28323	7.4	5
0	28324	7.4	8
0	28325	7.4	5
0	28326	7.4	3
0	28327	7.4	5
0	28328	7.4	3
0	28329	7.4	1
0	28330	7.4	1
0	28342	7.4	3
0	28343	7.4	5
0	28344	7.4	3
0	28345	7.4	5
0	28346	7.4	8
0	28347	7.4	5
0	28348	7.4	3
0	28349	7.4	5
0	28350	7.4	3
0	28351	7.4	1
0	28352	7.4	1
0	28491	7.45	3
0	28492	7.45	5
0	28493	7.45	3
0	28494	7.45	5
0	28495	7.45	8
0	28496	7.45	5
0	28497	7.45	3
0	28498	7.45	5
0	28499	7.45	3
0	28500	7.45	1
0	28501	7.45	1
0	28590	7.5	3
0	28591	7.5	5
0	28592	7.5	3
0	28593	7.5	5
0	28594	7.5	8
0	28595	7.5	5
0	28596	7.5	3
0	28597	7.5	5
0	28598	7.5	3
0	28599	7.5	1
0	28600	7.5	1
0	28612	7.5	3
0	28613	7.5	5
0	28614	7.5	3
0	28615	7.5	5
0	28616	7.5	8
0	28617	7.5	5
0	28618	7.5	3
0	28619	7.5	5
0	28620	7.5	3
0	28621	7.5	1
0	28622	7.5	1
0	28733	7.55	3
0	28734	7.55	5
0	28735	7.55	3
0	28736	7.55	5
0	28737	7.55	8
0	28738	7.55	5
0	28739	7.55	3
0	28740	7.55	5
0	28741	7.55	3
0	28742	7.55	1
0	28743	7.55	1
0	28832	7.6	3
0	28833	7.6	5
0	28834	7.6	3
0	28835	7.6	5
0	28836	7.6	8
0	28837	7.6	5
0	28838	7.6	3
0	28839	7.6	5
0	28840	7.6	3
0	28841	7.6	1
0	28842	7.6	1
0	28854	7.6	3
0	28855	7.6	5
0	28856	7.6	3
0	28857	7.6	5
0	28858	7.6	8
0	28859	7.6	5
0	28860	7.6	3
0	28861	7.6	5
0	28862	7.6	3
0	28863	7.6	1
0	28864	7.6	1
0	29021	7.65	3
0	29022	7.65	5
0	29023	7.65	3
0	29024	7.65	5
0	29025	7.65	8
0	29026	7.65	5
0	29027	7.65	3
0	29028	7.65	5
0	29029	7.65	3
0	29030	7.65	1
0	29031	7.65	1
0	29159	7.7	3
0	29160	7.7	5
0	29161	7.7	3
0	29162	7.7	5
0	29163	7.7	8
0	29164	7.7	5
0	29165	7.7	3
0	29166	7.7	5
0	29167	7.7	3
0	29168	7.7	1
0	29169	7.7	1
0	29181	7.7	3
0	29182	7.7	5
0	29183	7.7	3
0	29184	7.7	5
0	29185	7.7	8
0	29186	7.7	5
0	29187	7.7	3
0	29188	7.7	5
0	29189	7.7	3
0	29190	7.7	1
0	29191	7.7	1
0	29541	7.75	3
0	29542	7.75	5
0	29543	7.75	3
0	29544	7.75	5
0	29545	7.75	8
0	29546	7.75	5
0	29547	7.75	3
0	29548	7.75	5
0	29549	7.75	3
0	29550	7.75	1
0	29551	7.75	1
0	29716	7.8	3
0	29717	7.8	5
0	29718	7.8	3
0	29719	7.8	5
0	29720	7.8	8
0	29721	7.8	5
0	29722	7.8	3
0	29723	7.8	5
0	29724	7.8	3
0	29725	7.8	1
0	29726	7.8	1
0	29738	7.8	3
0	29739	7.8	5
0	29740	7.8	3
0	29741	7.8	5
0	29742	7.8	8
0	29743	7.8	5
0	29744	7.8	3
0	29745	7.8	5
0	29746	7.8	3
0	29747	7.8	1
0	29748	7.8	1
0	29970	7.85	3
0	29971	7.85	5
0	29972	7.85	3
0	29973	7.85	5
0	29974	7.85	8
0	29975	7.85	5
0	29976	7.85	3
0	29977	7.85	5
0	29978	7.85	3
0	29979	7.85	1
0	29980	7.85	1
0	30169	7.9	3
0	30170	7.9	5
0	30171	7.9	3
0	30172	7.9	5
0	30173	7.9	8
0	30174	7.9	5
0	30175	7.9	3
0	30176	7.9	5
0	30177	7.9	3
0	30178	7.9	1
0	30179	7.9	1
0	30191	7.9	3
0	30192	7.9	5
0	30193	7.9	3
0	30194	7.9	5
0	30195	7.9	8
0	30196	7.9	5
0	30197	7.9	3
0	30198	7.9	5
0	30199	7.9	3
0	30200	7.9	1
0	30201	7.9	1
0	30340	7.95	3
0	30341	7.95	5
0	30342	7.95	3
0	30343	7.95	5
0	30344	7.95	8
0	30345	7.95	5
0	30346	7.95	3
0	30347	7.95	5
0	30348	7.95	3
0	30349	7.95	1
0	30350	7.95	1
0	30462	8	3
0	30463	8	5
0	30464	8	3
0	30465	8	5
0	30466	8	8
0	30467	8	5
0	30468	8	3
0	30469	8	5
0	30470	8	3
0	30471	8	1
0	30472	8	1
0	30484	8	3
0	30485	8	5
0	30486	8	3
0	30487	8	5
0	30488	8	8
0	30489	8	5
0	30490	8	3
0	30491	8	5
0	30492	8	3
0	30493	8	1
0	30494	8	1
0	30628	8.05	3
0	30629	8.05	5
0	30630	8.05	3
0	30631	8.05	5
0	30632	8.05	8
0	30633	8.05	5
0	30634	8.05	3
0	30635	8.05	5
0	30636	8.05	3
0	30637	8.05	1
0	30638	8.05	1
0	30738	8.1	3
0	30739	8.1	5
0	30740	8.1	3
0	30741	8.1	5
0	30742	8.1	8
0	30743	8.1	5
0	30744	8.1	3
0	30745	8.1	5
0	30746	8.1	3
0	30747	8.1	1
0	30748	8.1	1
0	30760	8.1	3
0	30761	8.1	5
0	30762	8.1	3
0	30763	8.1	5
0	30764	8.1	8
0	30765	8.1	5
0	30766	8.1	3
0	30767	8.1	5
0	30768	8.1	3
0	30769	8.1	1
0	30770	8.1	1
0	30894	8.15	3
0	30895	8.15	5
0	30896	8.15	3
0	30897	8.15	5
0	30898	8.15	8
0	30899	8.15	5
0	30900	8.15	3
0	30901	8.15	5
0	30902	8.15	3
0	30903	8.15	1
0	30904	8.15	1
0	31072	8.2	3
0	31073	8.2	5
0	31074	8.2	3
0	31075	8.2	5
0	31076	8.2	8
0	31077	8.2	5
0	31078	8.2	3
0	31079	8.2	5
0	31080	8.2	3
0	31081	8.2	1
0	31082	8.2	1
0	31094	8.2	3
0	31095	8.2	5
0	31096	8.2	3
0	31097	8.2	5
0	31098	8.2	8
0	31099	8.2	5
0	31100	8.2	3
0	31101	8.2	5
0	31102	8.2	3
0	31103	8.2	1
0	31104	8.2	1
0	31215	8.25	3
0	31216	8.25	5
0	31217	8.25	3
0	31218	8.25	5
0	31219	8.25	8
0	31220	8.25	5
0	31221	8.25	3
0	31222	8.25	5
0	31223	8.25	3
0	31224	8.25	1
0	31225	8.25	1
0	31663	8.3	3
0	31664	8.3	5
0	31665	8.3	3
0	31666	8.3	5
0	31667	8.3	8
0	31668	8.3	5
0	31669	8.3	3
0	31670	8.3	5
0	31671	8.3	3
0	31672	8.3	1
0	31673	8.3	1
0	31685	8.3	3
0	31686	8.3	5
0	31687	8.3	3
0	31688	8.3	5
0	31689	8.3	8
0	31690	8.3	5
0	31691	8.3	3
0	31692	8.3	5
0	31693	8.3	3
0	31694	8.3	1
0	31695	8.3	1
0	32020	8.35	3
0	32021	8.35	5
0	32022	8.35	3
0	32023	8.35	5
0	32024	8.35	8
0	32025	8.35	5
0	32026	8.35	3
0	32027	8.35	5
0	32028	8.35	3
0	32029	8.35	1
0	32030	8.35	1
0	32256	8.4	3
0	32257	8.4	5
0	32258	8.4	3
0	32259	8.4	5
0	32260	8.4	8
0	32261	8.4	5
0	32262	8.4	3
0	32263	8.4	5
0	32264	8.4	3
0	32265	8.4	1
0	32266	8.4	1
0	32278	8.4	3
0	32279	8.4	5
0	32280	8.4	3
0	32281	8.4	5
0	32282	8.4	8
0	32283	8.4	5
0	32284	8.4	3
0	32285	8.4	5
0	32286	8.4	3
0	32287	8.4	1
0	32288	8.4	1
0	32618	8.45	3
0	32619	8.45	5
0	32620	8.45	3
0	32621	8.45	5
0	32622	8.45	8
0	32623	8.45	5
0	32624	8.45	3
0	32625	8.45	5
0	32626	8.45	3
0	32627	8.45	1
0	32628	8.45	1
0	32761	8.5	3
0	32762	8.5	5
0	32763	8.5	3
0	32764	8.5	5
0	32765	8.5	8
0	32766	8.5	5
0	32767	8.5	3
0	32768	8.5	5
0	32769	8.5	3
0	32770	8.5	1
0	32771	8.5	1
0	32783	8.5	3
0	32784	8.5	5
0	32785	8.5	3
0	32786	8.5	5
0	32787	8.5	8
0	32788	8.5	5
0	32789	8.5	3
0	32790	8.5	5
0	32791	8.5	3
0	32792	8.5	1
0	32793	8.5	1
0	32904	8.55	3
0	32905	8.55	5
0	32906	8.55	3
0	32907	8.55	5
0	32908	8.55	8
0	32909	8.55	5
0	32910	8.55	3
0	32911	8.55	5
0	32912	8.55	3
0	32913	8.55	1
0	32914	8.55	1
0	33026	8.6	3
0	33027	8.6	5
0	33028	8.6	3
0	33029	8.6	5
0	33030	8.6	8
0	33031	8.6	5
0	33032	8.6	3
0	33033	8.6	5
0	33034	8.6	3
0	33035	8.6	1
0	33036	8.6	1
0	33048	8.6	3
0	33049	8.6	5
0	33050	8.6	3
0	33051	8.6	5
0	33052	8.6	8
0	33053	8.6	5
0	33054	8.6	3
0	33055	8.6	5
0	33056	8.6	3
0	33057	8.6	1
0	33058	8.6	1
0	33169	8.65	3
0	33170	8.65	5
0	33171	8.65	3
0	33172	8.65	5
0	33173	8.65	8
0	33174	8.65	5
0	33175	8.65	3
0	33176	8.65	5
0	33177	8.65	3
0	33178	8.65	1
0	33179	8.65	1
0	33268	8.7	3
0	33269	8.7	5
0	33270	8.7	3
0	33271	8.7	5
0	33272	8.7	8
0	33273	8.7	5
0	33274	8.7	3
0	33275	8.7	5
0	33276	8.7	3
0	33277	8.7	1
0	33278	8.7	1
0	33290	8.7	3
0	33291	8.7	5
0	33292	8.7	3
0	33293	8.7	5
0	33294	8.7	8
0	33295	8.7	5
0	33296	8.7	3
0	33297	8.7	5
0	33298	8.7	3
0	33299	8.7	1
0	33300	8.7	1
0	33457	8.75	3
0	33458	8.75	5
0	33459	8.75	3
0	33460	8.75	5
0	33461	8.75	8
0	33462	8.75	5
0	33463	8.75	3
0	33464	8.75	5
0	33465	8.75	3
0	33466	8.75	1
0	33467	8.75	1
0	33602	8.8	3
0	33603	8.8	5
0	33604	8.8	3
0	33605	8.8	5
0	33606	8.8	8
0	33607	8.8	5
0	33608	8.8	3
0	33609	8.8	5
0	33610	8.8	3
0	33611	8.8	1
0	33612	8.8	1
0	33624	8.8	3
0	33625	8.8	5
0	33626	8.8	3
0	33627	8.8	5
0	33628	8.8	8
0	33629	8.8	5
0	33630	8.8	3
0	33631	8.8	5
0	33632	8.8	3
0	33633	8.8	1
0	33634	8.8	1
0	33984	8.85	3
0	33985	8.85	5
0	33986	8.85	3
0	33987	8.85	5
0	33988	8.85	8
0	33989	8.85	5
0	33990	8.85	3
0	33991	8.85	5
0	33992	8.85	3
0	33993	8.85	1
0	33994	8.85	1
0	34214	8.9	3
0	34215	8.9	5
0	34216	8.9	3
0	34217	8.9	5
0	34218	8.9	8
0	34219	8.9	5
0	34220	8.9	3
0	34221	8.9	5
0	34222	8.9	3
0	34223	8.9	1
0	34224	8.9	1
0	34236	8.9	3
0	34237	8.9	5
0	34238	8.9	3
0	34239	8.9	5
0	34240	8.9	8
0	34241	8.9	5
0	34242	8.9	3
0	34243	8.9	5
0	34244	8.9	3
0	34245	8.9	1
0	34246	8.9	1
0	34435	8.95	3
0	34436	8.95	5
0	34437	8.95	3
0	34438	8.95	5
0	34439	8.95	8
0	34440	8.95	5
0	34441	8.95	3
0	34442	8.95	5
0	34443	8.95	3
0	34444	8.95	1
0	34445	8.95	1
0	34621	9	3
0	34622	9	5
0	34623	9	3
0	34624	9	5
0	34625	9	8
0	34626	9	5
0	34627	9	3
0	34628	9	5
0	34629	9	3
0	34630	9	1
0	34631	9	1
0	34643	9	3
0	34644	9	5
0	34645	9	3
0	34646	9	5
0	34647	9	8
0	34648	9	5
0	34649	9	3
0	34650	9	5
0	34651	9	3
0	34652	9	1
0	34653	9	1
0	34815	9.05	3
0	34816	9.05	5
0	34817	9.05	3
0	34818	9.05	5
0	34819	9.05	8
0	34820	9.05	5
0	34821	9.05	3
0	34822	9.05	5
0	34823	9.05	3
0	34824	9.05	1
0	34825	9.05	1
0	34925	9.1	3
0	34926	9.1	5
0	34927	9.1	3
0	34928	9.1	5
0	34929	9.1	8
0	34930	9.1	5
0	34931	9.1	3
0	34932	9.1	5
0	34933	9.1	3
0	34934	9.1	1
0	34935	9.1	1
0	34947	9.1	3
0	34948	9.1	5
0	34949	9.1	3
0	34950	9.1	5
0	34951	9.1	8
0	34952	9.1	5
0	34953	9.1	3
0	34954	9.1	5
0	34955	9.1	3
0	34956	9.1	1
0	34957	9.1	1
0	35081	9.15	3
0	35082	9.15	5
0	35083	9.15	3
0	35084	9.15	5
0	35085	9.15	8
0	35086	9.15	5
0	35087	9.15	3
0	35088	9.15	5
0	35089	9.15	3
0	35090	9.15	1
0	35091	9.15	1
0	35180	9.2	3
0	35181	9.2	5
0	35182	9.2	3
0	35183	9.2	5
0	35184	9.2	8
0	35185	9.2	5
0	35186	9.2	3
0	35187	9.2	5
0	35188	9.2	3
0	35189	9.2	1
0	35190	9.2	1
0	35202	9.2	3
0	35203	9.2	5
0	35204	9.2	3
0	35205	9.2	5
0	35206	9.2	8
0	35207	9.2	5
0	35208	9.2	3
0	35209	9.2	5
0	35210	9.2	3
0	35211	9.2	1
0	35212	9.2	1
0	35323	9.25	3
0	35324	9.25	5
0	35325	9.25	3
0	35326	9.25	5
0	35327	9.25	8
0	35328	9.25	5
0	35329	9.25	3
0	35330	9.25	5
0	35331	9.25	3
0	35332	9.25	1
0	35333	9.25	1
0	35462	9.3	3
0	35463	9.3	5
0	35464	9.3	3
0	35465	9.3	5
0	35466	9.3	8
0	35467	9.3	5
0	35468	9.3	3
0	35469	9.3	5
0	35470	9.3	3
0	35471	9.3	1
0	35472	9.3	1
0	35484	9.3	3
0	35485	9.3	5
0	35486	9.3	3
0	35487	9.3	5
0	35488	9.3	8
0	35489	9.3	5
0	35490	9.3	3
0	35491	9.3	5
0	35492	9.3	3
0	35493	9.3	1
0	35494	9.3	1
0	35701	9.35	3
0	35702	9.35	5
0	35703	9.35	3
0	35704	9.35	5
0	35705	9.35	8
0	35706	9.35	5
0	35707	9.35	3
0	35708	9.35	5
0	35709	9.35	3
0	35710	9.35	1
0	35711	9.35	1
0	36041	9.4	3
0	36042	9.4	5
0	36043	9.4	3
0	36044	9.4	5
0	36045	9.4	8
0	36046	9.4	5
0	36047	9.4	3
0	36048	9.4	5
0	36049	9.4	3
0	36050	9.4	1
0	36051	9.4	1
0	36063	9.4	3
0	36064	9.4	5
0	36065	9.4	3
0	36066	9.4	5
0	36067	9.4	8
0	36068	9.4	5
0	36069	9.4	3
0	36070	9.4	5
0	36071	9.4	3
0	36072	9.4	1
0	36073	9.4	1
0	36376	9.45	3
0	36377	9.45	5
0	36378	9.45	3
0	36379	9.45	5
0	36380	9.45	8
0	36381	9.45	5
0	36382	9.45	3
0	36383	9.45	5
0	36384	9.45	3
0	36385	9.45	1
0	36386	9.45	1
0	36572	9.5	3
0	36573	9.5	5
0	36574	9.5	3
0	36575	9.5	5
0	36576	9.5	8
0	36577	9.5	5
0	36578	9.5	3
0	36579	9.5	5
0	36580	9.5	3
0	36581	9.5	1
0	36582	9.5	1
0	36594	9.5	3
0	36595	9.5	5
0	36596	9.5	3
0	36597	9.5	5
0	36598	9.5	8
0	36599	9.5	5
0	36600	9.5	3
0	36601	9.5	5
0	36602	9.5	3
0	36603	9.5	1
0	36604	9.5	1
0	36778	9.55	3
0	36779	9.55	5
0	36780	9.55	3
0	36781	9.55	5
0	36782	9.55	8
0	36783	9.55	5
0	36784	9.55	3
0	36785	9.55	5
0	36786	9.55	3
0	36787	9.55	1
0	36788	9.55	1
0	36974	9.6	3
0	36975	9.6	5
0	36976	9.6	3
0	36977	9.6	5
0	36978	9.6	8
0	36979	9.6	5
0	36980	9.6	3
0	36981	9.6	5
0	36982	9.6	3
0	36983	9.6	1
0	36984	9.6	1
0	36996	9.6	3
0	36997	9.6	5
0	36998	9.6	3
0	36999	9.6	5
0	37000	9.6	8
0	37001	9.6	5
0	37002	9.6	3
0	37003	9.6	5
0	37004	9.6	3
0	37005	9.6	1
0	37006	9.6	1
0	37117	9.65	3
0	37118	9.65	5
0	37119	9.65	3
0	37120	9.65	5
0	37121	9.65	8
0	37122	9.65	5
0	37123	9.65	3
0	37124	9.65	5
0	37125	9.65	3
0	37126	9.65	1
0	37127	9.65	1
0	37216	9.7	3
0	37217	9.7	5
0	37218	9.7	3
0	37219	9.7	5
0	37220	9.7	8
0	37221	9.7	5
0	37222	9.7	3
0	37223	9.7	5
0	37224	9.7	3
0	37225	9.7	1
0	37226	9.7	1
0	37238	9.7	3
0	37239	9.7	5
0	37240	9.7	3
0	37241	9.7	5
0	37242	9.7	8
0	37243	9.7	5
0	37244	9.7	3
0	37245	9.7	5
0	37246	9.7	3
0	37247	9.7	1
0	37248	9.7	1
0	37382	9.75	3
0	37383	9.75	5
0	37384	9.75	3
0	37385	9.75	5
0	37386	9.75	8
0	37387	9.75	5
0	37388	9.75	3
0	37389	9.75	5
0	37390	9.75	3
0	37391	9.75	1
0	37392	9.75	1
0	37504	9.8	3
0	37505	9.8	5
0	37506	9.8	3
0	37507	9.8	5
0	37508	9.8	8
0	37509	9.8	5
0	37510	9.8	3
0	37511	9.8	5
0	37512	9.8	3
0	37513	9.8	1
0	37514	9.8	1
0	37526	9.8	3
0	37527	9.8	5
0	37528	9.8	3
0	37529	9.8	5
0	37530	9.8	8
0	37531	9.8	5
0	37532	9.8	3
0	37533	9.8	5
0	37534	9.8	3
0	37535	9.8	1
0	37536	9.8	1
0	37670	9.85	3
0	37671	9.85	5
0	37672	9.85	3
0	37673	9.85	5
0	37674	9.85	8
0	37675	9.85	5
0	37676	9.85	3
0	37677	9.85	5
0	37678	9.85	3
0	37679	9.85	1
0	37680	9.85	1
0	37861	9.9	3
0	37862	9.9	5
0	37863	9.9	3
0	37864	9.9	5
0	37865	9.9	8
0	37866	9.9	5
0	37867	9.9	3
0	37868	9.9	5
0	37869	9.9	3
0	37870	9.9	1
0	37871	9.9	1
0	37883	9.9	3
0	37884	9.9	5
0	37885	9.9	3
0	37886	9.9	5
0	37887	9.9	8
0	37888	9.9	5
0	37889	9.9	3
0	37890	9.9	5
0	37891	9.9	3
0	37892	9.9	1
0	37893	9.9	1
0	38286	9.95	3
0	38287	9.95	5
0	38288	9.95	3
0	38289	9.95	5
0	38290	9.95	8
0	38291	9.95	5
0	38292	9.95	3
0	38293	9.95	5
0	38294	9.95	3
0	38295	9.95	1
0	38296	9.95	1
0	38635	10	3
0	38636	10	5
0	38637	10	3
0	38638	10	5
0	38639	10	8
0	38640	10	5
0	38641	10	3
0	38642	10	5
0	38643	10	3
0	38644	10	1
0	38645	10	1
0	38657	10	3
0	38658	10	5
0	38659	10	3
0	38660	10	5
0	38661	10	8
0	38662	10	5
0	38663	10	3
0	38664	10	5
0	38665	10	3
0	38666	10	1
0	38667	10	1
0	38911	10.05	3
0	38912	10.05	5
0	38913	10.05	3
0	38914	10.05	5
0	38915	10.05	8
0	38916	10.05	5
0	38917	10.05	3
0	38918	10.05	5
0	38919	10.05	3
0	38920	10.05	1
0	38921	10.05	1
0	39129	10.1	3
0	39130	10.1	5
0	39131	10.1	3
0	39132	10.1	5
0	39133	10.1	8
0	39134	10.1	5
0	39135	10.1	3
0	39136	10.1	5
0	39137	10.1	3
0	39138	10.1	1
0	39139	10.1	1
0	39151	10.1	3
0	39152	10.1	5
0	39153	10.1	3
0	39154	10.1	5
0	39155	10.1	8
0	39156	10.1	5
0	39157	10.1	3
0	39158	10.1	5
0	39159	10.1	3
0	39160	10.1	1
0	39161	10.1	1
0	39436	10.15	3
0	39437	10.15	5
0	39438	10.15	3
0	39439	10.15	5
0	39440	10.15	8
0	39441	10.15	5
0	39442	10.15	3
0	39443	10.15	5
0	39444	10.15	3
0	39445	10.15	1
0	39446	10.15	1
0	39558	10.2	3
0	39559	10.2	5
0	39560	10.2	3
0	39561	10.2	5
0	39562	10.2	8
0	39563	10.2	5
0	39564	10.2	3
0	39565	10.2	5
0	39566	10.2	3
0	39567	10.2	1
0	39568	10.2	1
0	39580	10.2	3
0	39581	10.2	5
0	39582	10.2	3
0	39583	10.2	5
0	39584	10.2	8
0	39585	10.2	5
0	39586	10.2	3
0	39587	10.2	5
0	39588	10.2	3
0	39589	10.2	1
0	39590	10.2	1
0	39701	10.25	3
0	39702	10.25	5
0	39703	10.25	3
0	39704	10.25	5
0	39705	10.25	8
0	39706	10.25	5
0	39707	10.25	3
0	39708	10.25	5
0	39709	10.25	3
0	39710	10.25	1
0	39711	10.25	1
0	39844	10.3	3
0	39845	10.3	5
0	39846	10.3	3
0	39847	10.3	5
0	39848	10.3	8
0	39849	10.3	5
0	39850	10.3	3
0	39851	10.3	5
0	39852	10.3	3
0	39853	10.3	1
0	39854	10.3	1
0	39866	10.3	3
0	39867	10.3	5
0	39868	10.3	3
0	39869	10.3	5
0	39870	10.3	8
0	39871	10.3	5
0	39872	10.3	3
0	39873	10.3	5
0	39874	10.3	3
0	39875	10.3	1
0	39876	10.3	1
0	40027	10.35	3
0	40028	10.35	5
0	40029	10.35	3
0	40030	10.35	5
0	40031	10.35	8
0	40032	10.35	5
0	40033	10.35	3
0	40034	10.35	5
0	40035	10.35	3
0	40036	10.35	1
0	40037	10.35	1
0	40149	10.4	3
0	40150	10.4	5
0	40151	10.4	3
0	40152	10.4	5
0	40153	10.4	8
0	40154	10.4	5
0	40155	10.4	3
0	40156	10.4	5
0	40157	10.4	3
0	40158	10.4	1
0	40159	10.4	1
0	40171	10.4	3
0	40172	10.4	5
0	40173	10.4	3
0	40174	10.4	5
0	40175	10.4	8
0	40176	10.4	5
0	40177	10.4	3
0	40178	10.4	5
0	40179	10.4	3
0	40180	10.4	1
0	40181	10.4	1
0	40407	10.45	3
0	40408	10.45	5
0	40409	10.45	3
0	40410	10.45	5
0	40411	10.45	8
0	40412	10.45	5
0	40413	10.45	3
0	40414	10.45	5
0	40415	10.45	3
0	40416	10.45	1
0	40417	10.45	1
0	40739	10.5	3
0	40740	10.5	5
0	40741	10.5	3
0	40742	10.5	5
0	40743	10.5	8
0	40744	10.5	5
0	40745	10.5	3
0	40746	10.5	5
0	40747	10.5	3
0	40748	10.5	1
0	40749	10.5	1
0	40761	10.5	3
0	40762	10.5	5
0	40763	10.5	3
0	40764	10.5	5
0	40765	10.5	8
0	40766	10.5	5
0	40767	10.5	3
0	40768	10.5	5
0	40769	10.5	3
0	40770	10.5	1
0	40771	10.5	1
0	41056	10.55	3
0	41057	10.55	5
0	41058	10.55	3
0	41059	10.55	5
0	41060	10.55	8
0	41061	10.55	5
0	41062	10.55	3
0	41063	10.55	5
0	41064	10.55	3
0	41065	10.55	1
0	41066	10.55	1
0	41328	10.6	3
0	41329	10.6	5
0	41330	10.6	3
0	41331	10.6	5
0	41332	10.6	8
0	41333	10.6	5
0	41334	10.6	3
0	41335	10.6	5
0	41336	10.6	3
0	41337	10.6	1
0	41338	10.6	1
0	41350	10.6	3
0	41351	10.6	5
0	41352	10.6	3
0	41353	10.6	5
0	41354	10.6	8
0	41355	10.6	5
0	41356	10.6	3
0	41357	10.6	5
0	41358	10.6	3
0	41359	10.6	1
0	41360	10.6	1
0	41616	10.65	3
0	41617	10.65	5
0	41618	10.65	3
0	41619	10.65	5
0	41620	10.65	8
0	41621	10.65	5
0	41622	10.65	3
0	41623	10.65	5
0	41624	10.65	3
0	41625	10.65	1
0	41626	10.65	1
0	41824	10.7	3
0	41825	10.7	5
0	41826	10.7	3
0	41827	10.7	5
0	41828	10.7	8
0	41829	10.7	5
0	41830	10.7	3
0	41831	10.7	5
0	41832	10.7	3
0	41833	10.7	1
0	41834	10.7	1
0	41846	10.7	3
0	41847	10.7	5
0	41848	10.7	3
0	41849	10.7	5
0	41850	10.7	8
0	41851	10.7	5
0	41852	10.7	3
0	41853	10.7	5
0	41854	10.7	3
0	41855	10.7	1
0	41856	10.7	1
0	41990	10.75	3
0	41991	10.75	5
0	41992	10.75	3
0	41993	10.75	5
0	41994	10.75	8
0	41995	10.75	5
0	41996	10.75	3
0	41997	10.75	5
0	41998	10.75	3
0	41999	10.75	1
0	42000	10.75	1
0	42089	10.8	3
0	42090	10.8	5
0	42091	10.8	3
0	42092	10.8	5
0	42093	10.8	8
0	42094	10.8	5
0	42095	10.8	3
0	42096	10.8	5
0	42097	10.8	3
0	42098	10.8	1
0	42099	10.8	1
0	42111	10.8	3
0	42112	10.8	5
0	42113	10.8	3
0	42114	10.8	5
0	42115	10.8	8
0	42116	10.8	5
0	42117	10.8	3
0	42118	10.8	5
0	42119	10.8	3
0	42120	10.8	1
0	42121	10.8	1
0	42255	10.85	3
0	42256	10.85	5
0	42257	10.85	3
0	42258	10.85	5
0	42259	10.85	8
0	42260	10.85	5
0	42261	10.85	3
0	42262	10.85	5
0	42263	10.85	3
0	42264	10.85	1
0	42265	10.85	1
0	42381	10.9	3
0	42382	10.9	5
0	42383	10.9	3
0	42384	10.9	5
0	42385	10.9	8
0	42386	10.9	5
0	42387	10.9	3
0	42388	10.9	5
0	42389	10.9	3
0	42390	10.9	1
0	42391	10.9	1
0	42403	10.9	3
0	42404	10.9	5
0	42405	10.9	3
0	42406	10.9	5
0	42407	10.9	8
0	42408	10.9	5
0	42409	10.9	3
0	42410	10.9	5
0	42411	10.9	3
0	42412	10.9	1
0	42413	10.9	1
0	42547	10.95	3
0	42548	10.95	5
0	42549	10.95	3
0	42550	10.95	5
0	42551	10.95	8
0	42552	10.95	5
0	42553	10.95	3
0	42554	10.95	5
0	42555	10.95	3
0	42556	10.95	1
0	42557	10.95	1
0	42725	11	3
0	42726	11	5
0	42727	11	3
0	42728	11	5
0	42729	11	8
0	42730	11	5
0	42731	11	3
0	42732	11	5
0	42733	11	3
0	42734	11	1
0	42735	11	1
0	42747	11	3
0	42748	11	5
0	42749	11	3
0	42750	11	5
0	42751	11	8
0	42752	11	5
0	42753	11	3
0	42754	11	5
0	42755	11	3
0	42756	11	1
0	42757	11	1
0	43054	11.05	3
0	43055	11.05	5
0	43056	11.05	3
0	43057	11.05	5
0	43058	11.05	8
0	43059	11.05	5
0	43060	11.05	3
0	43061	11.05	5
0	43062	11.05	3
0	43063	11.05	1
0	43064	11.05	1
0	43232	11.1	3
0	43233	11.1	5
0	43234	11.1	3
0	43235	11.1	5
0	43236	11.1	8
0	43237	11.1	5
0	43238	11.1	3
0	43239	11.1	5
0	43240	11.1	3
0	43241	11.1	1
0	43242	11.1	1
0	43254	11.1	3
0	43255	11.1	5
0	43256	11.1	3
0	43257	11.1	5
0	43258	11.1	8
0	43259	11.1	5
0	43260	11.1	3
0	43261	11.1	5
0	43262	11.1	3
0	43263	11.1	1
0	43264	11.1	1
0	43457	11.15	3
0	43458	11.15	5
0	43459	11.15	3
0	43460	11.15	5
0	43461	11.15	8
0	43462	11.15	5
0	43463	11.15	3
0	43464	11.15	5
0	43465	11.15	3
0	43466	11.15	1
0	43467	11.15	1
0	43625	11.2	3
0	43626	11.2	5
0	43627	11.2	3
0	43628	11.2	5
0	43629	11.2	8
0	43630	11.2	5
0	43631	11.2	3
0	43632	11.2	5
0	43633	11.2	3
0	43634	11.2	1
0	43635	11.2	1
0	43647	11.2	3
0	43648	11.2	5
0	43649	11.2	3
0	43650	11.2	5
0	43651	11.2	8
0	43652	11.2	5
0	43653	11.2	3
0	43654	11.2	5
0	43655	11.2	3
0	43656	11.2	1
0	43657	11.2	1
0	43811	11.25	3
0	43812	11.25	5
0	43813	11.25	3
0	43814	11.25	5
0	43815	11.25	8
0	43816	11.25	5
0	43817	11.25	3
0	43818	11.25	5
0	43819	11.25	3
0	43820	11.25	1
0	43821	11.25	1
0	43910	11.3	3
0	43911	11.3	5
0	43912	11.3	3
0	43913	11.3	5
0	43914	11.3	8
0	43915	11.3	5
0	43916	11.3	3
0	43917	11.3	5
0	43918	11.3	3
0	43919	11.3	1
0	43920	11.3	1
0	43932	11.3	3
0	43933	11.3	5
0	43934	11.3	3
0	43935	11.3	5
0	43936	11.3	8
0	43937	11.3	5
0	43938	11.3	3
0	43939	11.3	5
0	43940	11.3	3
0	43941	11.3	1
0	43942	11.3	1
0	44053	11.35	3
0	44054	11.35	5
0	44055	11.35	3
0	44056	11.35	5
0	44057	11.35	8
0	44058	11.35	5
0	44059	11.35	3
0	44060	11.35	5
0	44061	11.35	3
0	44062	11.35	1
0	44063	11.35	1
0	44157	11.4	3
0	44158	11.4	5
0	44159	11.4	3
0	44160	11.4	5
0	44161	11.4	8
0	44162	11.4	5
0	44163	11.4	3
0	44164	11.4	5
0	44165	11.4	3
0	44166	11.4	1
0	44167	11.4	1
0	44179	11.4	3
0	44180	11.4	5
0	44181	11.4	3
0	44182	11.4	5
0	44183	11.4	8
0	44184	11.4	5
0	44185	11.4	3
0	44186	11.4	5
0	44187	11.4	3
0	44188	11.4	1
0	44189	11.4	1
0	44300	11.45	3
0	44301	11.45	5
0	44302	11.45	3
0	44303	11.45	5
0	44304	11.45	8
0	44305	11.45	5
0	44306	11.45	3
0	44307	11.45	5
0	44308	11.45	3
0	44309	11.45	1
0	44310	11.45	1
0	44422	11.5	3
0	44423	11.5	5
0	44424	11.5	3
0	44425	11.5	5
0	44426	11.5	8
0	44427	11.5	5
0	44428	11.5	3
0	44429	11.5	5
0	44430	11.5	3
0	44431	11.5	1
0	44432	11.5	1
0	44444	11.5	3
0	44445	11.5	5
0	44446	11.5	3
0	44447	11.5	5
0	44448	11.5	8
0	44449	11.5	5
0	44450	11.5	3
0	44451	11.5	5
0	44452	11.5	3
0	44453	11.5	1
0	44454	11.5	1
0	44651	11.55	3
0	44652	11.55	5
0	44653	11.55	3
0	44654	11.55	5
0	44655	11.55	8
0	44656	11.55	5
0	44657	11.55	3
0	44658	11.55	5
0	44659	11.55	3
0	44660	11.55	1
0	44661	11.55	1
0	44895	11.6	3
0	44896	11.6	5
0	44897	11.6	3
0	44898	11.6	5
0	44899	11.6	8
0	44900	11.6	5
0	44901	11.6	3
0	44902	11.6	5
0	44903	11.6	3
0	44904	11.6	1
0	44905	11.6	1
0	44917	11.6	3
0	44918	11.6	5
0	44919	11.6	3
0	44920	11.6	5
0	44921	11.6	8
0	44922	11.6	5
0	44923	11.6	3
0	44924	11.6	5
0	44925	11.6	3
0	44926	11.6	1
0	44927	11.6	1
0	45172	11.65	3
0	45173	11.65	5
0	45174	11.65	3
0	45175	11.65	5
0	45176	11.65	8
0	45177	11.65	5
0	45178	11.65	3
0	45179	11.65	5
0	45180	11.65	3
0	45181	11.65	1
0	45182	11.65	1
0	45380	11.7	3
0	45381	11.7	5
0	45382	11.7	3
0	45383	11.7	5
0	45384	11.7	8
0	45385	11.7	5
0	45386	11.7	3
0	45387	11.7	5
0	45388	11.7	3
0	45389	11.7	1
0	45390	11.7	1
0	45402	11.7	3
0	45403	11.7	5
0	45404	11.7	3
0	45405	11.7	5
0	45406	11.7	8
0	45407	11.7	5
0	45408	11.7	3
0	45409	11.7	5
0	45410	11.7	3
0	45411	11.7	1
0	45412	11.7	1
0	45730	11.75	3
0	45731	11.75	5
0	45732	11.75	3
0	45733	11.75	5
0	45734	11.75	8
0	45735	11.75	5
0	45736	11.75	3
0	45737	11.75	5
0	45738	11.75	3
0	45739	11.75	1
0	45740	11.75	1
0	45882	11.8	3
0	45883	11.8	5
0	45884	11.8	3
0	45885	11.8	5
0	45886	11.8	8
0	45887	11.8	5
0	45888	11.8	3
0	45889	11.8	5
0	45890	11.8	3
0	45891	11.8	1
0	45892	11.8	1
0	45904	11.8	3
0	45905	11.8	5
0	45906	11.8	3
0	45907	11.8	5
0	45908	11.8	8
0	45909	11.8	5
0	45910	11.8	3
0	45911	11.8	5
0	45912	11.8	3
0	45913	11.8	1
0	45914	11.8	1
0	46025	11.85	3
0	46026	11.85	5
0	46027	11.85	3
0	46028	11.85	5
0	46029	11.85	8
0	46030	11.85	5
0	46031	11.85	3
0	46032	11.85	5
0	46033	11.85	3
0	46034	11.85	1
0	46035	11.85	1
0	46184	11.9	3
0	46185	11.9	5
0	46186	11.9	3
0	46187	11.9	5
0	46188	11.9	8
0	46189	11.9	5
0	46190	11.9	3
0	46191	11.9	5
0	46192	11.9	3
0	46193	11.9	1
0	46194	11.9	1
0	46206	11.9	3
0	46207	11.9	5
0	46208	11.9	3
0	46209	11.9	5
0	46210	11.9	8
0	46211	11.9	5
0	46212	11.9	3
0	46213	11.9	5
0	46214	11.9	3
0	46215	11.9	1
0	46216	11.9	1
0	46335	11.95	3
0	46336	11.95	5
0	46337	11.95	3
0	46338	11.95	5
0	46339	11.95	8
0	46340	11.95	5
0	46341	11.95	3
0	46342	11.95	5
0	46343	11.95	3
0	46344	11.95	1
0	46345	11.95	1
0	46445	12	3
0	46446	12	5
0	46447	12	3
0	46448	12	5
0	46449	12	8
0	46450	12	5
0	46451	12	3
0	46452	12	5
0	46453	12	3
0	46454	12	1
0	46455	12	1
0	46467	12	3
0	46468	12	5
0	46469	12	3
0	46470	12	5
0	46471	12	8
0	46472	12	5
0	46473	12	3
0	46474	12	5
0	46475	12	3
0	46476	12	1
0	46477	12	1
0	46611	12.05	3
0	46612	12.05	5
0	46613	12.05	3
0	46614	12.05	5
0	46615	12.05	8
0	46616	12.05	5
0	46617	12.05	3
0	46618	12.05	5
0	46619	12.05	3
0	46620	12.05	1
0	46621	12.05	1
0	46792	12.1	3
0	46793	12.1	5
0	46794	12.1	3
0	46795	12.1	5
0	46796	12.1	8
0	46797	12.1	5
0	46798	12.1	3
0	46799	12.1	5
0	46800	12.1	3
0	46801	12.1	1
0	46802	12.1	1
0	46814	12.1	3
0	46815	12.1	5
0	46816	12.1	3
0	46817	12.1	5
0	46818	12.1	8
0	46819	12.1	5
0	46820	12.1	3
0	46821	12.1	5
0	46822	12.1	3
0	46823	12.1	1
0	46824	12.1	1
0	47068	12.15	3
0	47069	12.15	5
0	47070	12.15	3
0	47071	12.15	5
0	47072	12.15	8
0	47073	12.15	5
0	47074	12.15	3
0	47075	12.15	5
0	47076	12.15	3
0	47077	12.15	1
0	47078	12.15	1
0	47304	12.2	3
0	47305	12.2	5
0	47306	12.2	3
0	47307	12.2	5
0	47308	12.2	8
0	47309	12.2	5
0	47310	12.2	3
0	47311	12.2	5
0	47312	12.2	3
0	47313	12.2	1
0	47314	12.2	1
0	47326	12.2	3
0	47327	12.2	5
0	47328	12.2	3
0	47329	12.2	5
0	47330	12.2	8
0	47331	12.2	5
0	47332	12.2	3
0	47333	12.2	5
0	47334	12.2	3
0	47335	12.2	1
0	47336	12.2	1
0	47529	12.25	3
0	47530	12.25	5
0	47531	12.25	3
0	47532	12.25	5
0	47533	12.25	8
0	47534	12.25	5
0	47535	12.25	3
0	47536	12.25	5
0	47537	12.25	3
0	47538	12.25	1
0	47539	12.25	1
0	47719	12.3	3
0	47720	12.3	5
0	47721	12.3	3
0	47722	12.3	5
0	47723	12.3	8
0	47724	12.3	5
0	47725	12.3	3
0	47726	12.3	5
0	47727	12.3	3
0	47728	12.3	1
0	47729	12.3	1
0	47741	12.3	3
0	47742	12.3	5
0	47743	12.3	3
0	47744	12.3	5
0	47745	12.3	8
0	47746	12.3	5
0	47747	12.3	3
0	47748	12.3	5
0	47749	12.3	3
0	47750	12.3	1
0	47751	12.3	1
0	47954	12.35	3
0	47955	12.35	5
0	47956	12.35	3
0	47957	12.35	5
0	47958	12.35	8
0	47959	12.35	5
0	47960	12.35	3
0	47961	12.35	5
0	47962	12.35	3
0	47963	12.35	1
0	47964	12.35	1
0	48053	12.4	3
0	48054	12.4	5
0	48055	12.4	3
0	48056	12.4	5
0	48057	12.4	8
0	48058	12.4	5
0	48059	12.4	3
0	48060	12.4	5
0	48061	12.4	3
0	48062	12.4	1
0	48063	12.4	1
0	48075	12.4	3
0	48076	12.4	5
0	48077	12.4	3
0	48078	12.4	5
0	48079	12.4	8
0	48080	12.4	5
0	48081	12.4	3
0	48082	12.4	5
0	48083	12.4	3
0	48084	12.4	1
0	48085	12.4	1
0	48239	12.45	3
0	48240	12.45	5
0	48241	12.45	3
0	48242	12.45	5
0	48243	12.45	8
0	48244	12.45	5
0	48245	12.45	3
0	48246	12.45	5
0	48247	12.45	3
0	48248	12.45	1
0	48249	12.45	1
0	48389	12.5	3
0	48390	12.5	5
0	48391	12.5	3
0	48392	12.5	5
0	48393	12.5	8
0	48394	12.5	5
0	48395	12.5	3
0	48396	12.5	5
0	48397	12.5	3
0	48398	12.5	1
0	48399	12.5	1
0	48411	12.5	3
0	48412	12.5	5
0	48413	12.5	3
0	48414	12.5	5
0	48415	12.5	8
0	48416	12.5	5
0	48417	12.5	3
0	48418	12.5	5
0	48419	12.5	3
0	48420	12.5	1
0	48421	12.5	1
0	48532	12.55	3
0	48533	12.55	5
0	48534	12.55	3
0	48535	12.55	5
0	48536	12.55	8
0	48537	12.55	5
0	48538	12.55	3
0	48539	12.55	5
0	48540	12.55	3
0	48541	12.55	1
0	48542	12.55	1
0	48654	12.6	3
0	48655	12.6	5
0	48656	12.6	3
0	48657	12.6	5
0	48658	12.6	8
0	48659	12.6	5
0	48660	12.6	3
0	48661	12.6	5
0	48662	12.6	3
0	48663	12.6	1
0	48664	12.6	1
0	48676	12.6	3
0	48677	12.6	5
0	48678	12.6	3
0	48679	12.6	5
0	48680	12.6	8
0	48681	12.6	5
0	48682	12.6	3
0	48683	12.6	5
0	48684	12.6	3
0	48685	12.6	1
0	48686	12.6	1
0	48913	12.65	3
0	48914	12.65	5
0	48915	12.65	3
0	48916	12.65	5
0	48917	12.65	8
0	48918	12.65	5
0	48919	12.65	3
0	48920	12.65	5
0	48921	12.65	3
0	48922	12.65	1
0	48923	12.65	1
0	49104	12.7	3
0	49105	12.7	5
0	49106	12.7	3
0	49107	12.7	5
0	49108	12.7	8
0	49109	12.7	5
0	49110	12.7	3
0	49111	12.7	5
0	49112	12.7	3
0	49113	12.7	1
0	49114	12.7	1
0	49126	12.7	3
0	49127	12.7	5
0	49128	12.7	3
0	49129	12.7	5
0	49130	12.7	8
0	49131	12.7	5
0	49132	12.7	3
0	49133	12.7	5
0	49134	12.7	3
0	49135	12.7	1
0	49136	12.7	1
0	49339	12.75	3
0	49340	12.75	5
0	49341	12.75	3
0	49342	12.75	5
0	49343	12.75	8
0	49344	12.75	5
0	49345	12.75	3
0	49346	12.75	5
0	49347	12.75	3
0	49348	12.75	1
0	49349	12.75	1
0	49530	12.8	3
0	49531	12.8	5
0	49532	12.8	3
0	49533	12.8	5
0	49534	12.8	8
0	49535	12.8	5
0	49536	12.8	3
0	49537	12.8	5
0	49538	12.8	3
0	49539	12.8	1
0	49540	12.8	1
0	49552	12.8	3
0	49553	12.8	5
0	49554	12.8	3
0	49555	12.8	5
0	49556	12.8	8
0	49557	12.8	5
0	49558	12.8	3
0	49559	12.8	5
0	49560	12.8	3
0	49561	12.8	1
0	49562	12.8	1
0	49805	12.85	3
0	49806	12.85	5
0	49807	12.85	3
0	49808	12.85	5
0	49809	12.85	8
0	49810	12.85	5
0	49811	12.85	3
0	49812	12.85	5
0	49813	12.85	3
0	49814	12.85	1
0	49815	12.85	1
0	49967	12.9	3
0	49968	12.9	5
0	49969	12.9	3
0	49970	12.9	5
0	49971	12.9	8
0	49972	12.9	5
0	49973	12.9	3
0	49974	12.9	5
0	49975	12.9	3
0	49976	12.9	1
0	49977	12.9	1
0	49989	12.9	3
0	49990	12.9	5
0	49991	12.9	3
0	49992	12.9	5
0	49993	12.9	8
0	49994	12.9	5
0	49995	12.9	3
0	49996	12.9	5
0	49997	12.9	3
0	49998	12.9	1
0	49999	12.9	1
0	50110	12.95	3
0	50111	12.95	5
0	50112	12.95	3
0	50113	12.95	5
0	50114	12.95	8
0	50115	12.95	5
0	50116	12.95	3
0	50117	12.95	5
0	50118	12.95	3
0	50119	12.95	1
0	50120	12.95	1
0	50291	13	3
0	50292	13	5
0	50293	13	3
0	50294	13	5
0	50295	13	8
0	50296	13	5
0	50297	13	3
0	50298	13	5
0	50299	13	3
0	50300	13	1
0	50301	13	1
0	50313	13	3
0	50314	13	5
0	50315	13	3
0	50316	13	5
0	50317	13	8
0	50318	13	5
0	50319	13	3
0	50320	13	5
0	50321	13	3
0	50322	13	1
0	50323	13	1
0	50484	13.05	3
0	50485	13.05	5
0	50486	13.05	3
0	50487	13.05	5
0	50488	13.05	8
0	50489	13.05	5
0	50490	13.05	3
0	50491	13.05	5
0	50492	13.05	3
0	50493	13.05	1
0	50494	13.05	1
0	50594	13.1	3
0	50595	13.1	5
0	50596	13.1	3
0	50597	13.1	5
0	50598	13.1	8
0	50599	13.1	5
0	50600	13.1	3
0	50601	13.1	5
0	50602	13.1	3
0	50603	13.1	1
0	50604	13.1	1
0	50616	13.1	3
0	50617	13.1	5
0	50618	13.1	3
0	50619	13.1	5
0	50620	13.1	8
0	50621	13.1	5
0	50622	13.1	3
0	50623	13.1	5
0	50624	13.1	3
0	50625	13.1	1
0	50626	13.1	1
0	50807	13.15	3
0	50808	13.15	5
0	50809	13.15	3
0	50810	13.15	5
0	50811	13.15	8
0	50812	13.15	5
0	50813	13.15	3
0	50814	13.15	5
0	50815	13.15	3
0	50816	13.15	1
0	50817	13.15	1
0	51036	13.2	3
0	51037	13.2	5
0	51038	13.2	3
0	51039	13.2	5
0	51040	13.2	8
0	51041	13.2	5
0	51042	13.2	3
0	51043	13.2	5
0	51044	13.2	3
0	51045	13.2	1
0	51046	13.2	1
0	51058	13.2	3
0	51059	13.2	5
0	51060	13.2	3
0	51061	13.2	5
0	51062	13.2	8
0	51063	13.2	5
0	51064	13.2	3
0	51065	13.2	5
0	51066	13.2	3
0	51067	13.2	1
0	51068	13.2	1
0	51295	13.25	3
0	51296	13.25	5
0	51297	13.25	3
0	51298	13.25	5
0	51299	13.25	8
0	51300	13.25	5
0	51301	13.25	3
0	51302	13.25	5
0	51303	13.25	3
0	51304	13.25	1
0	51305	13.25	1
0	51618	13.3	3
0	51619	13.3	5
0	51620	13.3	3
0	51621	13.3	5
0	51622	13.3	8
0	51623	13.3	5
0	51624	13.3	3
0	51625	13.3	5
0	51626	13.3	3
0	51627	13.3	1
0	51628	13.3	1
0	51640	13.3	3
0	51641	13.3	5
0	51642	13.3	3
0	51643	13.3	5
0	51644	13.3	8
0	51645	13.3	5
0	51646	13.3	3
0	51647	13.3	5
0	51648	13.3	3
0	51649	13.3	1
0	51650	13.3	1
0	51997	13.35	3
0	51998	13.35	5
0	51999	13.35	3
0	52000	13.35	5
0	52001	13.35	8
0	52002	13.35	5
0	52003	13.35	3
0	52004	13.35	5
0	52005	13.35	3
0	52006	13.35	1
0	52007	13.35	1
0	52237	13.4	3
0	52238	13.4	5
0	52239	13.4	3
0	52240	13.4	5
0	52241	13.4	8
0	52242	13.4	5
0	52243	13.4	3
0	52244	13.4	5
0	52245	13.4	3
0	52246	13.4	1
0	52247	13.4	1
0	52259	13.4	3
0	52260	13.4	5
0	52261	13.4	3
0	52262	13.4	5
0	52263	13.4	8
0	52264	13.4	5
0	52265	13.4	3
0	52266	13.4	5
0	52267	13.4	3
0	52268	13.4	1
0	52269	13.4	1
0	52426	13.45	3
0	52427	13.45	5
0	52428	13.45	3
0	52429	13.45	5
0	52430	13.45	8
0	52431	13.45	5
0	52432	13.45	3
0	52433	13.45	5
0	52434	13.45	3
0	52435	13.45	1
0	52436	13.45	1
0	52571	13.5	3
0	52572	13.5	5
0	52573	13.5	3
0	52574	13.5	5
0	52575	13.5	8
0	52576	13.5	5
0	52577	13.5	3
0	52578	13.5	5
0	52579	13.5	3
0	52580	13.5	1
0	52581	13.5	1
0	52593	13.5	3
0	52594	13.5	5
0	52595	13.5	3
0	52596	13.5	5
0	52597	13.5	8
0	52598	13.5	5
0	52599	13.5	3
0	52600	13.5	5
0	52601	13.5	3
0	52602	13.5	1
0	52603	13.5	1
0	52780	13.55	3
0	52781	13.55	5
0	52782	13.55	3
0	52783	13.55	5
0	52784	13.55	8
0	52785	13.55	5
0	52786	13.55	3
0	52787	13.55	5
0	52788	13.55	3
0	52789	13.55	1
0	52790	13.55	1
0	52902	13.6	3
0	52903	13.6	5
0	52904	13.6	3
0	52905	13.6	5
0	52906	13.6	8
0	52907	13.6	5
0	52908	13.6	3
0	52909	13.6	5
0	52910	13.6	3
0	52911	13.6	1
0	52912	13.6	1
0	52924	13.6	3
0	52925	13.6	5
0	52926	13.6	3
0	52927	13.6	5
0	52928	13.6	8
0	52929	13.6	5
0	52930	13.6	3
0	52931	13.6	5
0	52932	13.6	3
0	52933	13.6	1
0	52934	13.6	1
0	53045	13.65	3
0	53046	13.65	5
0	53047	13.65	3
0	53048	13.65	5
0	53049	13.65	8
0	53050	13.65	5
0	53051	13.65	3
0	53052	13.65	5
0	53053	13.65	3
0	53054	13.65	1
0	53055	13.65	1
0	53216	13.7	3
0	53217	13.7	5
0	53218	13.7	3
0	53219	13.7	5
0	53220	13.7	8
0	53221	13.7	5
0	53222	13.7	3
0	53223	13.7	5
0	53224	13.7	3
0	53225	13.7	1
0	53226	13.7	1
0	53238	13.7	3
0	53239	13.7	5
0	53240	13.7	3
0	53241	13.7	5
0	53242	13.7	8
0	53243	13.7	5
0	53244	13.7	3
0	53245	13.7	5
0	53246	13.7	3
0	53247	13.7	1
0	53248	13.7	1
0	53491	13.75	3
0	53492	13.75	5
0	53493	13.75	3
0	53494	13.75	5
0	53495	13.75	8
0	53496	13.75	5
0	53497	13.75	3
0	53498	13.75	5
0	53499	13.75	3
0	53500	13.75	1
0	53501	13.75	1
0	53659	13.8	3
0	53660	13.8	5
0	53661	13.8	3
0	53662	13.8	5
0	53663	13.8	8
0	53664	13.8	5
0	53665	13.8	3
0	53666	13.8	5
0	53667	13.8	3
0	53668	13.8	1
0	53669	13.8	1
0	53681	13.8	3
0	53682	13.8	5
0	53683	13.8	3
0	53684	13.8	5
0	53685	13.8	8
0	53686	13.8	5
0	53687	13.8	3
0	53688	13.8	5
0	53689	13.8	3
0	53690	13.8	1
0	53691	13.8	1
0	53917	13.85	3
0	53918	13.85	5
0	53919	13.85	3
0	53920	13.85	5
0	53921	13.85	8
0	53922	13.85	5
0	53923	13.85	3
0	53924	13.85	5
0	53925	13.85	3
0	53926	13.85	1
0	53927	13.85	1
0	54148	13.9	3
0	54149	13.9	5
0	54150	13.9	3
0	54151	13.9	5
0	54152	13.9	8
0	54153	13.9	5
0	54154	13.9	3
0	54155	13.9	5
0	54156	13.9	3
0	54157	13.9	1
0	54158	13.9	1
0	54170	13.9	3
0	54171	13.9	5
0	54172	13.9	3
0	54173	13.9	5
0	54174	13.9	8
0	54175	13.9	5
0	54176	13.9	3
0	54177	13.9	5
0	54178	13.9	3
0	54179	13.9	1
0	54180	13.9	1
0	54478	13.95	3
0	54479	13.95	5
0	54480	13.95	3
0	54481	13.95	5
0	54482	13.95	8
0	54483	13.95	5
0	54484	13.95	3
0	54485	13.95	5
0	54486	13.95	3
0	54487	13.95	1
0	54488	13.95	1
0	54667	14	3
0	54668	14	5
0	54669	14	3
0	54670	14	5
0	54671	14	8
0	54672	14	5
0	54673	14	3
0	54674	14	5
0	54675	14	3
0	54676	14	1
0	54677	14	1
0	54689	14	3
0	54690	14	5
0	54691	14	3
0	54692	14	5
0	54693	14	8
0	54694	14	5
0	54695	14	3
0	54696	14	5
0	54697	14	3
0	54698	14	1
0	54699	14	1
0	54914	14.05	3
0	54915	14.05	5
0	54916	14.05	3
0	54917	14.05	5
0	54918	14.05	8
0	54919	14.05	5
0	54920	14.05	3
0	54921	14.05	5
0	54922	14.05	3
0	54923	14.05	1
0	54924	14.05	1
0	55182	14.1	3
0	55183	14.1	5
0	55184	14.1	3
0	55185	14.1	5
0	55186	14.1	8
0	55187	14.1	5
0	55188	14.1	3
0	55189	14.1	5
0	55190	14.1	3
0	55191	14.1	1
0	55192	14.1	1
0	55204	14.1	3
0	55205	14.1	5
0	55206	14.1	3
0	55207	14.1	5
0	55208	14.1	8
0	55209	14.1	5
0	55210	14.1	3
0	55211	14.1	5
0	55212	14.1	3
0	55213	14.1	1
0	55214	14.1	1
0	55489	14.15	3
0	55490	14.15	5
0	55491	14.15	3
0	55492	14.15	5
0	55493	14.15	8
0	55494	14.15	5
0	55495	14.15	3
0	55496	14.15	5
0	55497	14.15	3
0	55498	14.15	1
0	55499	14.15	1
0	55664	14.2	3
0	55665	14.2	5
0	55666	14.2	3
0	55667	14.2	5
0	55668	14.2	8
0	55669	14.2	5
0	55670	14.2	3
0	55671	14.2	5
0	55672	14.2	3
0	55673	14.2	1
0	55674	14.2	1
0	55686	14.2	3
0	55687	14.2	5
0	55688	14.2	3
0	55689	14.2	5
0	55690	14.2	8
0	55691	14.2	5
0	55692	14.2	3
0	55693	14.2	5
0	55694	14.2	3
0	55695	14.2	1
0	55696	14.2	1
0	55900	14.25	3
0	55901	14.25	5
0	55902	14.25	3
0	55903	14.25	5
0	55904	14.25	8
0	55905	14.25	5
0	55906	14.25	3
0	55907	14.25	5
0	55908	14.25	3
0	55909	14.25	1
0	55910	14.25	1
0	56107	14.3	3
0	56108	14.3	5
0	56109	14.3	3
0	56110	14.3	5
0	56111	14.3	8
0	56112	14.3	5
0	56113	14.3	3
0	56114	14.3	5
0	56115	14.3	3
0	56116	14.3	1
0	56117	14.3	1
0	56129	14.3	3
0	56130	14.3	5
0	56131	14.3	3
0	56132	14.3	5
0	56133	14.3	8
0	56134	14.3	5
0	56135	14.3	3
0	56136	14.3	5
0	56137	14.3	3
0	56138	14.3	1
0	56139	14.3	1
0	56353	14.35	3
0	56354	14.35	5
0	56355	14.35	3
0	56356	14.35	5
0	56357	14.35	8
0	56358	14.35	5
0	56359	14.35	3
0	56360	14.35	5
0	56361	14.35	3
0	56362	14.35	1
0	56363	14.35	1
0	56544	14.4	3
0	56545	14.4	5
0	56546	14.4	3
0	56547	14.4	5
0	56548	14.4	8
0	56549	14.4	5
0	56550	14.4	3
0	56551	14.4	5
0	56552	14.4	3
0	56553	14.4	1
0	56554	14.4	1
0	56566	14.4	3
0	56567	14.4	5
0	56568	14.4	3
0	56569	14.4	5
0	56570	14.4	8
0	56571	14.4	5
0	56572	14.4	3
0	56573	14.4	5
0	56574	14.4	3
0	56575	14.4	1
0	56576	14.4	1
0	56837	14.45	3
0	56838	14.45	5
0	56839	14.45	3
0	56840	14.45	5
0	56841	14.45	8
0	56842	14.45	5
0	56843	14.45	3
0	56844	14.45	5
0	56845	14.45	3
0	56846	14.45	1
0	56847	14.45	1
0	57054	14.5	3
0	57055	14.5	5
0	57056	14.5	3
0	57057	14.5	5
0	57058	14.5	8
0	57059	14.5	5
0	57060	14.5	3
0	57061	14.5	5
0	57062	14.5	3
0	57063	14.5	1
0	57064	14.5	1
0	57076	14.5	3
0	57077	14.5	5
0	57078	14.5	3
0	57079	14.5	5
0	57080	14.5	8
0	57081	14.5	5
0	57082	14.5	3
0	57083	14.5	5
0	57084	14.5	3
0	57085	14.5	1
0	57086	14.5	1
0	57228	14.55	3
0	57229	14.55	5
0	57230	14.55	3
0	57231	14.55	5
0	57232	14.55	8
0	57233	14.55	5
0	57234	14.55	3
0	57235	14.55	5
0	57236	14.55	3
0	57237	14.55	1
0	57238	14.55	1
0	57350	14.6	3
0	57351	14.6	5
0	57352	14.6	3
0	57353	14.6	5
0	57354	14.6	8
0	57355	14.6	5
0	57356	14.6	3
0	57357	14.6	5
0	57358	14.6	3
0	57359	14.6	1
0	57360	14.6	1
0	57372	14.6	3
0	57373	14.6	5
0	57374	14.6	3
0	57375	14.6	5
0	57376	14.6	8
0	57377	14.6	5
0	57378	14.6	3
0	57379	14.6	5
0	57380	14.6	3
0	57381	14.6	1
0	57382	14.6	1
0	57510	14.65	3
0	57511	14.65	5
0	57512	14.65	3
0	57513	14.65	5
0	57514	14.65	8
0	57515	14.65	5
0	57516	14.65	3
0	57517	14.65	5
0	57518	14.65	3
0	57519	14.65	1
0	57520	14.65	1
0	57609	14.7	3
0	57610	14.7	5
0	57611	14.7	3
0	57612	14.7	5
0	57613	14.7	8
0	57614	14.7	5
0	57615	14.7	3
0	57616	14.7	5
0	57617	14.7	3
0	57618	14.7	1
0	57619	14.7	1
0	57631	14.7	3
0	57632	14.7	5
0	57633	14.7	3
0	57634	14.7	5
0	57635	14.7	8
0	57636	14.7	5
0	57637	14.7	3
0	57638	14.7	5
0	57639	14.7	3
0	57640	14.7	1
0	57641	14.7	1
0	57752	14.75	3
0	57753	14.75	5
0	57754	14.75	3
0	57755	14.75	5
0	57756	14.75	8
0	57757	14.75	5
0	57758	14.75	3
0	57759	14.75	5
0	57760	14.75	3
0	57761	14.75	1
0	57762	14.75	1
0	57897	14.8	3
0	57898	14.8	5
0	57899	14.8	3
0	57900	14.8	5
0	57901	14.8	8
0	57902	14.8	5
0	57903	14.8	3
0	57904	14.8	5
0	57905	14.8	3
0	57906	14.8	1
0	57907	14.8	1
0	57919	14.8	3
0	57920	14.8	5
0	57921	14.8	3
0	57922	14.8	5
0	57923	14.8	8
0	57924	14.8	5
0	57925	14.8	3
0	57926	14.8	5
0	57927	14.8	3
0	57928	14.8	1
0	57929	14.8	1
0	58107	14.85	3
0	58108	14.85	5
0	58109	14.85	3
0	58110	14.85	5
0	58111	14.85	8
0	58112	14.85	5
0	58113	14.85	3
0	58114	14.85	5
0	58115	14.85	3
0	58116	14.85	1
0	58117	14.85	1
0	58319	14.9	3
0	58320	14.9	5
0	58321	14.9	3
0	58322	14.9	5
0	58323	14.9	8
0	58324	14.9	5
0	58325	14.9	3
0	58326	14.9	5
0	58327	14.9	3
0	58328	14.9	1
0	58329	14.9	1
0	58341	14.9	3
0	58342	14.9	5
0	58343	14.9	3
0	58344	14.9	5
0	58345	14.9	8
0	58346	14.9	5
0	58347	14.9	3
0	58348	14.9	5
0	58349	14.9	3
0	58350	14.9	1
0	58351	14.9	1
0	58513	14.95	3
0	58514	14.95	5
0	58515	14.95	3
0	58516	14.95	5
0	58517	14.95	8
0	58518	14.95	5
0	58519	14.95	3
0	58520	14.95	5
0	58521	14.95	3
0	58522	14.95	1
0	58523	14.95	1
0	58698	15	3
0	58699	15	5
0	58700	15	3
0	58701	15	5
0	58702	15	8
0	58703	15	5
0	58704	15	3
0	58705	15	5
0	58706	15	3
0	58707	15	1
0	58708	15	1
0	58720	15	3
0	58721	15	5
0	58722	15	3
0	58723	15	5
0	58724	15	8
0	58725	15	5
0	58726	15	3
0	58727	15	5
0	58728	15	3
0	58729	15	1
0	58730	15	1
0	58938	15.05	3
0	58939	15.05	5
0	58940	15.05	3
0	58941	15.05	5
0	58942	15.05	8
0	58943	15.05	5
0	58944	15.05	3
0	58945	15.05	5
0	58946	15.05	3
0	58947	15.05	1
0	58948	15.05	1
0	59071	15.1	3
0	59072	15.1	5
0	59073	15.1	3
0	59074	15.1	5
0	59075	15.1	8
0	59076	15.1	5
0	59077	15.1	3
0	59078	15.1	5
0	59079	15.1	3
0	59080	15.1	1
0	59081	15.1	1
0	59093	15.1	3
0	59094	15.1	5
0	59095	15.1	3
0	59096	15.1	5
0	59097	15.1	8
0	59098	15.1	5
0	59099	15.1	3
0	59100	15.1	5
0	59101	15.1	3
0	59102	15.1	1
0	59103	15.1	1
0	59282	15.15	3
0	59283	15.15	5
0	59284	15.15	3
0	59285	15.15	5
0	59286	15.15	8
0	59287	15.15	5
0	59288	15.15	3
0	59289	15.15	5
0	59290	15.15	3
0	59291	15.15	1
0	59292	15.15	1
0	59412	15.2	3
0	59413	15.2	5
0	59414	15.2	3
0	59415	15.2	5
0	59416	15.2	8
0	59417	15.2	5
0	59418	15.2	3
0	59419	15.2	5
0	59420	15.2	3
0	59421	15.2	1
0	59422	15.2	1
0	59434	15.2	3
0	59435	15.2	5
0	59436	15.2	3
0	59437	15.2	5
0	59438	15.2	8
0	59439	15.2	5
0	59440	15.2	3
0	59441	15.2	5
0	59442	15.2	3
0	59443	15.2	1
0	59444	15.2	1
0	59555	15.25	3
0	59556	15.25	5
0	59557	15.25	3
0	59558	15.25	5
0	59559	15.25	8
0	59560	15.25	5
0	59561	15.25	3
0	59562	15.25	5
0	59563	15.25	3
0	59564	15.25	1
0	59565	15.25	1
0	59654	15.3	3
0	59655	15.3	5
0	59656	15.3	3
0	59657	15.3	5
0	59658	15.3	8
0	59659	15.3	5
0	59660	15.3	3
0	59661	15.3	5
0	59662	15.3	3
0	59663	15.3	1
0	59664	15.3	1
0	59676	15.3	3
0	59677	15.3	5
0	59678	15.3	3
0	59679	15.3	5
0	59680	15.3	8
0	59681	15.3	5
0	59682	15.3	3
0	59683	15.3	5
0	59684	15.3	3
0	59685	15.3	1
0	59686	15.3	1
0	59841	15.35	3
0	59842	15.35	5
0	59843	15.35	3
0	59844	15.35	5
0	59845	15.35	8
0	59846	15.35	5
0	59847	15.35	3
0	59848	15.35	5
0	59849	15.35	3
0	59850	15.35	1
0	59851	15.35	1
0	59991	15.4	3
0	59992	15.4	5
0	59993	15.4	3
0	59994	15.4	5
0	59995	15.4	8
0	59996	15.4	5
0	59997	15.4	3
0	59998	15.4	5
0	59999	15.4	3
0	60000	15.4	1
0	60001	15.4	1
0	60013	15.4	3
0	60014	15.4	5
0	60015	15.4	3
0	60016	15.4	5
0	60017	15.4	8
0	60018	15.4	5
0	60019	15.4	3
0	60020	15.4	5
0	60021	15.4	3
0	60022	15.4	1
0	60023	15.4	1
0	60239	15.45	3
0	60240	15.45	5
0	60241	15.45	3
0	60242	15.45	5
0	60243	15.45	8
0	60244	15.45	5
0	60245	15.45	3
0	60246	15.45	5
0	60247	15.45	3
0	60248	15.45	1
0	60249	15.45	1
0	60413	15.5	3
0	60414	15.5	5
0	60415	15.5	3
0	60416	15.5	5
0	60417	15.5	8
0	60418	15.5	5
0	60419	15.5	3
0	60420	15.5	5
0	60421	15.5	3
0	60422	15.5	1
0	60423	15.5	1
0	60435	15.5	3
0	60436	15.5	5
0	60437	15.5	3
0	60438	15.5	5
0	60439	15.5	8
0	60440	15.5	5
0	60441	15.5	3
0	60442	15.5	5
0	60443	15.5	3
0	60444	15.5	1
0	60445	15.5	1
0	60642	15.55	3
0	60643	15.55	5
0	60644	15.55	3
0	60645	15.55	5
0	60646	15.55	8
0	60647	15.55	5
0	60648	15.55	3
0	60649	15.55	5
0	60650	15.55	3
0	60651	15.55	1
0	60652	15.55	1
0	60881	15.6	3
0	60882	15.6	5
0	60883	15.6	3
0	60884	15.6	5
0	60885	15.6	8
0	60886	15.6	5
0	60887	15.6	3
0	60888	15.6	5
0	60889	15.6	3
0	60890	15.6	1
0	60891	15.6	1
0	60903	15.6	3
0	60904	15.6	5
0	60905	15.6	3
0	60906	15.6	5
0	60907	15.6	8
0	60908	15.6	5
0	60909	15.6	3
0	60910	15.6	5
0	60911	15.6	3
0	60912	15.6	1
0	60913	15.6	1
0	61084	15.65	3
0	61085	15.65	5
0	61086	15.65	3
0	61087	15.65	5
0	61088	15.65	8
0	61089	15.65	5
0	61090	15.65	3
0	61091	15.65	5
0	61092	15.65	3
0	61093	15.65	1
0	61094	15.65	1
0	61257	15.7	3
0	61258	15.7	5
0	61259	15.7	3
0	61260	15.7	5
0	61261	15.7	8
0	61262	15.7	5
0	61263	15.7	3
0	61264	15.7	5
0	61265	15.7	3
0	61266	15.7	1
0	61267	15.7	1
0	61279	15.7	3
0	61280	15.7	5
0	61281	15.7	3
0	61282	15.7	5
0	61283	15.7	8
0	61284	15.7	5
0	61285	15.7	3
0	61286	15.7	5
0	61287	15.7	3
0	61288	15.7	1
0	61289	15.7	1
0	61535	15.75	3
0	61536	15.75	5
0	61537	15.75	3
0	61538	15.75	5
0	61539	15.75	8
0	61540	15.75	5
0	61541	15.75	3
0	61542	15.75	5
0	61543	15.75	3
0	61544	15.75	1
0	61545	15.75	1
0	61696	15.8	3
0	61697	15.8	5
0	61698	15.8	3
0	61699	15.8	5
0	61700	15.8	8
0	61701	15.8	5
0	61702	15.8	3
0	61703	15.8	5
0	61704	15.8	3
0	61705	15.8	1
0	61706	15.8	1
0	61718	15.8	3
0	61719	15.8	5
0	61720	15.8	3
0	61721	15.8	5
0	61722	15.8	8
0	61723	15.8	5
0	61724	15.8	3
0	61725	15.8	5
0	61726	15.8	3
0	61727	15.8	1
0	61728	15.8	1
0	61879	15.85	3
0	61880	15.85	5
0	61881	15.85	3
0	61882	15.85	5
0	61883	15.85	8
0	61884	15.85	5
0	61885	15.85	3
0	61886	15.85	5
0	61887	15.85	3
0	61888	15.85	1
0	61889	15.85	1
0	62006	15.9	3
0	62007	15.9	5
0	62008	15.9	3
0	62009	15.9	5
0	62010	15.9	8
0	62011	15.9	5
0	62012	15.9	3
0	62013	15.9	5
0	62014	15.9	3
0	62015	15.9	1
0	62016	15.9	1
0	62028	15.9	3
0	62029	15.9	5
0	62030	15.9	3
0	62031	15.9	5
0	62032	15.9	8
0	62033	15.9	5
0	62034	15.9	3
0	62035	15.9	5
0	62036	15.9	3
0	62037	15.9	1
0	62038	15.9	1
0	62195	15.95	3
0	62196	15.95	5
0	62197	15.95	3
0	62198	15.95	5
0	62199	15.95	8
0	62200	15.95	5
0	62201	15.95	3
0	62202	15.95	5
0	62203	15.95	3
0	62204	15.95	1
0	62205	15.95	1
0	62368	16	3
0	62369	16	5
0	62370	16	3
0	62371	16	5
0	62372	16	8
0	62373	16	5
0	62374	16	3
0	62375	16	5
0	62376	16	3
0	62377	16	1
0	62378	16	1
0	62390	16	3
0	62391	16	5
0	62392	16	3
0	62393	16	5
0	62394	16	8
0	62395	16	5
0	62396	16	3
0	62397	16	5
0	62398	16	3
0	62399	16	1
0	62400	16	1
0	62597	16.05	3
0	62598	16.05	5
0	62599	16.05	3
0	62600	16.05	5
0	62601	16.05	8
0	62602	16.05	5
0	62603	16.05	3
0	62604	16.05	5
0	62605	16.05	3
0	62606	16.05	1
0	62607	16.05	1
0	62837	16.1	3
0	62838	16.1	5
0	62839	16.1	3
0	62840	16.1	5
0	62841	16.1	8
0	62842	16.1	5
0	62843	16.1	3
0	62844	16.1	5
0	62845	16.1	3
0	62846	16.1	1
0	62847	16.1	1
0	62859	16.1	3
0	62860	16.1	5
0	62861	16.1	3
0	62862	16.1	5
0	62863	16.1	8
0	62864	16.1	5
0	62865	16.1	3
0	62866	16.1	5
0	62867	16.1	3
0	62868	16.1	1
0	62869	16.1	1
0	63062	16.15	3
0	63063	16.15	5
0	63064	16.15	3
0	63065	16.15	5
0	63066	16.15	8
0	63067	16.15	5
0	63068	16.15	3
0	63069	16.15	5
[...]
3	232655	59.393584192201	121260
3	232673	59.398426728067	121401
3	232849	59.407424192201	121542
3	232867	59.412266728067	121683
3	232976	59.421264192201	121824
3	233035	59.435104192201	121965
3	233045	59.437019262162	122106
3	233072	59.448944192201	122247
3	233191	59.462784192201	122388
3	233230	59.476624192201	122529
3	233243	59.490464192201	122670
3	233408	59.504304192201	122811
3	233450	59.518144192201	122952
3	233670	59.583626728067	123093
3	234923	59.943584192201	123234
3	235183	59.983626728067	123375
3	235185	59.983626728067	123516
3	235228	59.997466728067	123657
3	235230	59.997466728067	123798
3	236858	60.433626728067	123939
3	237066	60.483626728067	124080
3	237358	60.533626728067	124221
3	237360	60.533626728067	124362
3	237905	60.683626728067	124503
3	237924	60.697466728067	124644
3	238086	60.711306728067	124785
3	239188	61.043584192201	124926
3	239961	61.233626728067	125067
3	241147	61.583626728067	125208
3	241372	61.633626728067	125349
3	241390	61.647466728067	125490
3	242689	62.033730596859	125631
3	242707	62.047570596859	125772
3	242832	62.061410596859	125913
3	242944	62.075250596859	126054
3	242962	62.083626728067	126195
3	242984	62.089090596859	126336
3	243182	62.102930596859	126477
3	243200	62.11164899642	126618
3	243243	62.116770596859	126759
3	243272	62.12548899642	126900
3	243310	62.130610596859	127041
3	243340	62.143584192201	127182
3	243485	62.158290596859	127323
3	243540	62.172130596859	127464
3	243558	62.183626728067	127605
3	243568	62.185970596859	127746
3	243594	62.197466728067	127887
3	243604	62.199810596859	128028
3	243777	62.213650596859	128169
3	243837	62.227490596859	128310
3	243855	62.241330596859	128451
3	244275	62.332173132725	128592
3	244293	62.346013132725	128733
3	244412	62.359853132725	128874
3	245391	62.633626728067	129015
3	245402	62.63396899642	129156
3	245429	62.64780899642	129297
3	246272	62.833626728067	129438
3	246299	62.847466728067	129579
3	247179	63.098462591762	129720
3	247373	63.112302591762	129861
3	247439	63.139982591762	130002
3	247458	63.148426728067	130143
3	247690	63.183626728067	130284
3	247976	63.233626728067	130425
3	248004	63.243584192201	130566
3	248553	63.383626728067	130707
3	248572	63.397466728067	130848
3	248734	63.411306728067	130989
3	248753	63.425146728067	131130
3	248772	63.438986728067	131271
3	249879	63.733626728067	131412
3	249881	63.733626728067	131553
3	249909	63.747466728067	131694
3	250034	63.761306728067	131835
3	250136	63.775146728067	131976
3	250154	63.788986728067	132117
3	250319	63.802826728067	132258
3	250361	63.816666728067	132399
3	250388	63.830506728067	132540
3	250406	63.844346728067	132681
3	250525	63.858186728067	132822
3	250564	63.872026728067	132963
3	250582	63.885866728067	133104
3	250600	63.899706728067	133245
3	250769	63.913546728067	133386
3	250871	63.927386728067	133527
3	250889	63.941226728067	133668
3	251008	63.955066728067	133809
3	251026	63.968906728067	133950
3	251993	64.233626728067	134091
3	251995	64.233626728067	134232
3	252434	64.333626728067	134373
3	252453	64.338266728067	134514
3	252472	64.347466728067	134655
3	253072	64.483626728067	134796
3	253074	64.483626728067	134937
3	253109	64.497466728067	135078
3	253111	64.497466728067	135219
3	253291	64.511306728067	135360
3	253293	64.511306728067	135501
3	253351	64.525146728067	135642
3	253353	64.525146728067	135783
3	253391	64.538986728067	135924
3	253393	64.538986728067	136065
3	253531	64.552826728067	136206
3	253533	64.552826728067	136347
3	253560	64.566666728067	136488
3	253587	64.580506728067	136629
3	253606	64.594346728067	136770
3	253810	64.622026728067	136911
3	253850	64.635866728067	137052
3	253869	64.649706728067	137193
3	253993	64.663546728067	137334
3	254054	64.677386728067	137475
3	254073	64.691226728067	137616
3	254247	64.705066728067	137757
3	254285	64.718906728067	137898
3	254334	64.732746728067	138039
3	255685	65.043584192201	138180
3	256797	65.333626728067	138321
3	256799	65.333626728067	138462
3	257280	65.433626728067	138603
3	257299	65.447466728067	138744
3	257418	65.461306728067	138885
3	257476	65.475146728067	139026
3	257495	65.488986728067	139167
3	257663	65.502826728067	139308
3	257697	65.516666728067	139449
3	257961	65.593584192201	139590
3	258660	65.79780899642	139731
3	258823	65.81164899642	139872
3	258887	65.82548899642	140013
3	258901	65.83932899642	140154
3	259646	66.033626728067	140295
3	259664	66.047466728067	140436
3	260130	66.133626728067	140577
3	260148	66.147466728067	140718
3	261147	66.433626728067	140859
3	261149	66.433626728067	141000
3	262054	66.683626728067	141141
3	262073	66.697466728067	141282
3	262235	66.711306728067	141423
3	264098	67.233626728067	141564
3	264100	67.233626728067	141705
3	264128	67.238456785734	141846
3	264146	67.247466728067	141987
3	264268	67.261306728067	142128
3	264298	67.266136785734	142269
3	265260	67.533626728067	142410
3	265268	67.533730596859	142551
3	265459	67.583626728067	142692
3	265877	67.683626728067	142833
3	265895	67.697466728067	142974
3	267340	68.088218386173	143115
3	267597	68.133626728067	143256
3	267615	68.138266728067	143397
3	267842	68.183626728067	143538
3	267860	68.197466728067	143679
3	268072	68.225146728067	143820
3	268102	68.238986728067	143961
3	268221	68.252826728067	144102
3	268251	68.266666728067	144243
3	268278	68.280506728067	144384
3	268296	68.294346728067	144525
3	268581	68.348426728067	144666
3	268724	68.376106728067	144807
3	269472	68.583626728067	144948
3	269490	68.597466728067	145089
3	269661	68.611306728067	145230
3	269724	68.625146728067	145371
3	269754	68.633626728067	145512
3	269804	68.638986728067	145653
3	269822	68.648272534095	145794
3	269938	68.652826728067	145935
3	269945	68.652864192201	146076
3	270805	68.898426728067	146217
3	271789	69.14780899642	146358
3	271916	69.16164899642	146499
3	272002	69.17548899642	146640
3	272032	69.183626728067	146781
3	272267	69.216704192201	146922
3	272344	69.233626728067	147063
3	272362	69.238266728067	147204
3	272489	69.252106728067	147345
3	272537	69.265946728067	147486
3	272576	69.279786728067	147627
3	272594	69.293626728067	147768
3	272763	69.307466728067	147909
3	272808	69.321306728067	148050
3	272838	69.335146728067	148191
3	272856	69.348986728067	148332
3	272977	69.362826728067	148473
3	273037	69.376666728067	148614
3	273055	69.390506728067	148755
3	273220	69.404346728067	148896
3	273250	69.418186728067	149037
3	273289	69.432026728067	149178
3	273327	69.448426728067	149319
3	274139	69.68396899642	149460
3	274415	69.748426728067	149601
3	276094	70.23396899642	149742
3	276112	70.24780899642	149883
3	276320	70.298426728067	150024
3	276501	70.333626728067	150165
3	276832	70.433626728067	150306
3	277243	70.548426728067	150447
3	277598	70.633626728067	150588
3	277616	70.647466728067	150729
3	278373	70.833626728067	150870
3	278403	70.848426728067	151011
3	280002	71.263262591762	151152
3	280041	71.277102591762	151293
3	280054	71.290942591762	151434
3	280221	71.304782591762	151575
3	280500	71.383626728067	151716
3	280502	71.383626728067	151857
3	280531	71.388266728067	151998
3	280748	71.433626728067	152139
3	280766	71.447466728067	152280
3	280889	71.461306728067	152421
3	280931	71.475146728067	152562
3	280970	71.488986728067	152703
3	281711	71.683626728067	152844
3	281729	71.697466728067	152985
3	283700	72.198426728067	153126
3	283866	72.212266728067	153267
3	283921	72.226106728067	153408
3	283940	72.239946728067	153549
3	284062	72.253786728067	153690
3	284105	72.267626728067	153831
3	284142	72.281466728067	153972
3	284976	72.483626728067	154113
3	284978	72.483626728067	154254
3	285008	72.488266728067	154395
3	285180	72.502106728067	154536
3	285242	72.515946728067	154677
3	285301	72.536032534095	154818
3	285320	72.549872534095	154959
3	286234	72.78396899642	155100
3	286835	72.942862591762	155241
3	286970	72.956702591762	155382
3	287452	73.083730596859	155523
3	287466	73.088456785734	155664
3	287485	73.097570596859	155805
3	287677	73.102296785734	155946
3	288267	73.298426728067	156087
3	288997	73.492862591762	156228
3	289182	73.506702591762	156369
3	289400	73.583626728067	156510
3	289402	73.583626728067	156651
3	289635	73.633730596859	156792
3	289654	73.647570596859	156933
3	291403	74.133626728067	157074
3	291405	74.133626728067	157215
3	291749	74.233626728067	157356
3	291767	74.247466728067	157497
3	292271	74.398426728067	157638
3	292965	74.583626728067	157779
3	294933	75.133626728067	157920
3	295137	75.183626728067	158061
3	295139	75.183626728067	158202
3	295168	75.197466728067	158343
3	295337	75.211306728067	158484
3	295417	75.233626728067	158625
3	295436	75.238986728067	158766
3	296349	75.483626728067	158907
3	296378	75.497466728067	159048
3	296388	75.498426728067	159189
3	296564	75.511306728067	159330
3	297426	75.738266728067	159471
3	297552	75.752106728067	159612
3	297610	75.765946728067	159753
3	297658	75.779786728067	159894
3	298331	75.983626728067	160035
3	299490	76.283626728067	160176
3	299509	76.288266728067	160317
3	299528	76.292906728067	160458
3	299698	76.302106728067	160599
3	299753	76.315946728067	160740
3	299792	76.329786728067	160881
3	299811	76.333626728067	161022
3	299830	76.343626728067	161163
3	299948	76.357466728067	161304
3	299967	76.371306728067	161445
3	299986	76.385146728067	161586
3	300274	76.44876899642	161727
3	300391	76.46260899642	161868
3	300779	76.58396899642	162009
3	300812	76.598426728067	162150
3	300978	76.61164899642	162291
3	301039	76.62548899642	162432
3	301541	76.783626728067	162573
3	301559	76.797466728067	162714
3	302952	77.148426728067	162855
3	303076	77.16164899642	162996
3	303141	77.183626728067	163137
3	303159	77.197466728067	163278
3	303326	77.211306728067	163419
3	303748	77.333626728067	163560
3	303961	77.383626728067	163701
3	303980	77.388266728067	163842
3	304195	77.433626728067	163983
3	305137	77.69780899642	164124
3	305305	77.71164899642	164265
3	306992	78.248426728067	164406
3	307153	78.283626728067	164547
3	309400	78.983626728067	164688
3	309419	78.997466728067	164829
3	309587	79.011306728067	164970
3	309661	79.025146728067	165111
3	309683	79.033626728067	165252
3	309702	79.038986728067	165393
3	309721	79.047466728067	165534
3	309838	79.052826728067	165675
3	309857	79.066666728067	165816
3	309876	79.080506728067	165957
3	310513	79.233626728067	166098
3	310531	79.247466728067	166239
3	310654	79.261306728067	166380
3	311651	79.542906728067	166521
3	311775	79.556746728067	166662
3	311873	79.583626728067	166803
3	311875	79.583626728067	166944
3	311888	79.58396899642	167085
3	311917	79.597466728067	167226
3	314750	80.333626728067	167367
3	314768	80.347466728067	167508
3	314885	80.361306728067	167649
3	315899	80.633626728067	167790
3	315901	80.633626728067	167931
3	315903	80.633626728067	168072
3	315934	80.642906728067	168213
3	316065	80.656746728067	168354
3	316092	80.661306728067	168495
3	316193	80.675146728067	168636
3	316214	80.683626728067	168777
3	316242	80.688986728067	168918
3	316255	80.698224192201	169059
3	316423	80.712064192201	169200
3	316515	80.725904192201	169341
3	316534	80.737006783963	169482
3	316548	80.739744192201	169623
3	316677	80.753584192201	169764
3	316715	80.767424192201	169905
3	316744	80.778526783963	170046
3	316776	80.792366783963	170187
3	317428	80.94780899642	170328
3	318399	81.183626728067	170469
3	318436	81.197466728067	170610
3	318606	81.211306728067	170751
3	318672	81.225146728067	170892
3	318691	81.233626728067	171033
3	318710	81.238986728067	171174
3	318832	81.252826728067	171315
3	318846	81.266666728067	171456
3	319487	81.43396899642	171597
3	321052	81.883626728067	171738
3	321074	81.897466728067	171879
3	322123	82.183626728067	172020
3	322540	82.283626728067	172161
3	322542	82.283626728067	172302
3	322606	82.297466728067	172443
3	322616	82.298272534095	172584
3	322626	82.298426728067	172725
3	322801	82.311306728067	172866
3	322811	82.312112534095	173007
3	322821	82.312266728067	173148
3	322889	82.325146728067	173289
3	322899	82.325952534095	173430
3	322909	82.326106728067	173571
3	322935	82.338986728067	173712
3	322945	82.339946728067	173853
3	323074	82.352826728067	173994
3	323122	82.367626728067	174135
3	323781	82.533626728067	174276
3	323791	82.53396899642	174417
3	323817	82.547466728067	174558
3	323827	82.54780899642	174699
3	324000	82.583626728067	174840
3	324019	82.597466728067	174981
3	324692	82.783626728067	175122
3	324710	82.797466728067	175263
3	324981	82.848426728067	175404
3	325104	82.862266728067	175545
3	325171	82.876106728067	175686
3	325184	82.887019262162	175827
3	325202	82.889946728067	175968
3	325369	82.900859262162	176109
3	326182	83.133626728067	176250
3	326830	83.333626728067	176391
3	327009	83.383626728067	176532
3	327027	83.397466728067	176673
3	327245	83.433626728067	176814
3	327263	83.447466728067	176955
3	327388	83.461306728067	177096
3	328037	83.633626728067	177237
3	328841	83.898426728067	177378
3	329253	83.983626728067	177519
3	329255	83.983626728067	177660
3	329281	83.997466728067	177801
3	329283	83.997466728067	177942
3	330213	84.198224192201	178083
3	330220	84.198272534095	178224
3	330385	84.212064192201	178365
3	330447	84.225904192201	178506
3	330465	84.233626728067	178647
3	330479	84.239744192201	178788
3	330604	84.253584192201	178929
3	330661	84.267424192201	179070
3	330700	84.281264192201	179211
3	330718	84.295104192201	179352
3	330883	84.308944192201	179493
3	330913	84.322784192201	179634
3	330952	84.336624192201	179775
3	331363	84.448426728067	179916
3	331591	84.484459262162	180057
3	331802	84.533626728067	180198
3	331815	84.547466728067	180339
3	332678	84.738456785734	180480
3	332691	84.748224192201	180621
3	332814	84.752296785734	180762
3	332897	84.783626728067	180903
3	333993	85.083626728067	181044
3	334783	85.298224192201	181185
3	335015	85.333626728067	181326
3	335715	85.533626728067	181467
3	335717	85.533626728067	181608
3	335745	85.547466728067	181749
3	335866	85.561306728067	181890
3	336116	85.638218386173	182031
3	337034	85.883626728067	182172
3	339049	86.412064192201	182313
3	339153	86.425904192201	182454
3	339171	86.433626728067	182595
3	339190	86.439744192201	182736
3	339729	86.58396899642	182877
3	339762	86.59780899642	183018
3	339772	86.598426728067	183159
3	339949	86.61164899642	183300
3	339959	86.612266728067	183441
3	340018	86.626106728067	183582
3	340048	86.633626728067	183723
3	341207	86.948224192201	183864
3	341418	86.983626728067	184005
3	341985	87.13396899642	184146
3	342004	87.14780899642	184287
3	342228	87.188266728067	184428
3	343061	87.378062591762	184569
3	343249	87.405742591762	184710
3	343283	87.419582591762	184851
3	343319	87.433422591762	184992
3	343330	87.43396899642	185133
3	343352	87.44780899642	185274
3	343476	87.46164899642	185415
3	343554	87.47548899642	185556
3	343573	87.486401530515	185697
3	343829	87.533626728067	185838
3	344502	87.733626728067	185979
3	344530	87.743726529761	186120
3	344651	87.757566529761	186261
3	344730	87.798426728067	186402
3	346554	88.283626728067	186543
3	346576	88.288266728067	186684
3	346595	88.293726529761	186825
3	346806	88.321406529761	186966
3	346840	88.333626728067	187107
3	346861	88.335246529761	187248
3	346883	88.348426728067	187389
3	347762	88.583626728067	187530
3	348711	88.843726529761	187671
3	348837	88.857566529761	187812
3	348937	88.871406529761	187953
3	348971	88.883626728067	188094
3	348973	88.883626728067	188235
3	349002	88.897466728067	188376
3	349918	89.148426728067	188517
3	350819	89.383626728067	188658
3	350838	89.388266728067	188799
3	351009	89.402106728067	188940
3	351588	89.58396899642	189081
3	352115	89.747466728067	189222
3	352234	89.761306728067	189363
3	352283	89.78396899642	189504
3	352302	89.79780899642	189645
3	352470	89.81164899642	189786
3	352544	89.83932899642	189927
3	354120	90.283626728067	190068
3	354138	90.297466728067	190209
3	354330	90.33396899642	190350
3	354349	90.34780899642	190491
3	354466	90.36164899642	190632
3	354527	90.37548899642	190773
3	354841	90.483626728067	190914
3	355053	90.533626728067	191055
3	355071	90.547466728067	191196
3	355649	90.69780899642	191337
3	356054	90.783626728067	191478
3	356056	90.783626728067	191619
3	356086	90.797466728067	191760
3	356254	90.811306728067	191901
3	357851	91.283626728067	192042
3	357869	91.297466728067	192183
3	358036	91.311306728067	192324
3	358113	91.325146728067	192465
3	358131	91.333626728067	192606
3	358150	91.338986728067	192747
3	358271	91.352826728067	192888
3	358313	91.366666728067	193029
3	358545	91.43396899642	193170
3	359052	91.583730596859	193311
3	359060	91.58396899642	193452
3	359086	91.59780899642	193593
3	360202	91.883626728067	193734
3	360221	91.897466728067	193875
3	360389	91.911306728067	194016
3	360462	91.925146728067	194157
3	360481	91.938986728067	194298
3	360603	91.952826728067	194439
3	360646	91.966666728067	194580
3	360683	91.980506728067	194721
3	361482	92.183626728067	194862
3	361501	92.197466728067	195003
3	361673	92.211306728067	195144
3	362429	92.383626728067	195285
3	362447	92.388266728067	195426
3	362465	92.397466728067	195567
3	362634	92.411306728067	195708
3	362740	92.425146728067	195849
3	362758	92.433626728067	195990
3	363086	92.51164899642	196131
3	363117	92.52548899642	196272
3	363488	92.63396899642	196413
3	364744	92.933626728067	196554
3	364932	92.983626728067	196695
3	365549	93.19780899642	196836
3	366696	93.483626728067	196977
3	366698	93.483626728067	197118
3	366718	93.488266728067	197259
3	366989	93.533626728067	197400
3	367580	93.73396899642	197541
3	368718	94.038266728067	197682
3	368843	94.052106728067	197823
3	368947	94.083730596859	197964
3	370010	94.38396899642	198105
3	370028	94.39780899642	198246
3	370199	94.41164899642	198387
3	370952	94.583626728067	198528
3	370954	94.583626728067	198669
3	370974	94.588266728067	198810
3	371252	94.633626728067	198951
3	371260	94.633730596859	199092
3	372247	94.93396899642	199233
3	372265	94.94780899642	199374
3	372390	94.96164899642	199515
3	373111	95.138266728067	199656
3	373234	95.152106728067	199797
3	373322	95.183626728067	199938
3	374128	95.433626728067	200079
3	374147	95.447466728067	200220
3	374267	95.461306728067	200361
3	374311	95.48396899642	200502
3	375173	95.683626728067	200643
3	375175	95.683626728067	200784
3	375198	95.697466728067	200925
3	375476	95.738483513801	201066
3	376426	96.03396899642	201207
3	377367	96.233626728067	201348
3	377414	96.247466728067	201489
3	377424	96.248224192201	201630
3	377434	96.248426728067	201771
3	377643	96.283626728067	201912
3	377876	96.33396899642	202053
3	379737	96.833626728067	202194
3	379755	96.847466728067	202335
3	379878	96.861306728067	202476
3	379953	96.875146728067	202617
3	380605	97.083626728067	202758
3	380624	97.097466728067	202899
3	380837	97.13396899642	203040
3	380851	97.14780899642	203181
3	381700	97.333626728067	203322
3	381888	97.383626728067	203463
3	382769	97.633626728067	203604
3	382771	97.633626728067	203745
3	382800	97.647466728067	203886
3	382944	97.68396899642	204027
3	382958	97.69780899642	204168
3	384152	97.947466728067	204309
3	384527	98.03396899642	204450
3	385057	98.183626728067	204591
3	385075	98.197466728067	204732
3	385266	98.24780899642	204873
3	386224	98.433626728067	205014
3	386243	98.447466728067	205155
3	386369	98.461306728067	205296
3	386459	98.475146728067	205437
3	386496	98.483626728067	205578
3	386498	98.483626728067	205719
3	386531	98.497466728067	205860
3	386703	98.511306728067	206001
3	387485	98.733626728067	206142
3	387608	98.761306728067	206283
3	387650	98.775146728067	206424
3	388356	98.933626728067	206565
3	389596	99.283626728067	206706
3	389598	99.283626728067	206847
3	389619	99.297466728067	206988
3	389816	99.33396899642	207129
3	390441	99.483626728067	207270
3	390479	99.497466728067	207411
3	390836	99.583626728067	207552
3	390838	99.583626728067	207693
3	391682	99.833626728067	207834
3	391700	99.847466728067	207975
3	391842	99.88396899642	208116
3	393986	100.483626728067	208257
3	394494	100.598426728067	208398
3	394712	100.633626728067	208539
3	394731	100.647466728067	208680
3	394857	100.661306728067	208821
3	394900	100.675146728067	208962
3	394940	100.688986728067	209103
3	401858	102.538266728067	209244
3	405150	103.388266728067	209385

