version 2
run Egw-0-20191009-13:59:16-7581
attr configname Egw
attr datetime 20191009-13:59:16
attr experiment Egw
attr inifile SimV3.ini
attr iterationvars ""
attr iterationvarsf ""
attr measurement ""
attr network NetworkTormV2
attr processid 7581
attr repetition 0
attr replication #0
attr resultdir results
attr runnumber 0
attr seedset 0
param **.mobility.traceFile "\"paths/Egw.movements\""
param **.numNodes 4
param **.application.dataGenerationInterval 1s
param **.application.dataSizeInBytes 10
param **.application.ttl 999999s
param **application.nodesThatGen true
param **application.nodesGenMsg "\"0,1,2,3\""
param **application.startMultipleMsg false
param **application.numMultipleMsg 100
param **application.hopsListSize 50
param **.application.endGeneratingMsg 99999s
param **.routingLayer "\"RoutingLqeGw\""
param **.routing.maximumCacheSize 5000byte
param **.routing.maximumHopCount 25
param **.routing.useTTL false
param **.routing.waitBFsend 0.5
param **.routing.max_age 999999s
param **.routing.gateway_list "\"\""
param **.routing.actual_gateway "\"\""
param **.routing.gwCheckPeriod 5s
param **.numNodes 2
param **.application.usedRNG 1
param **.application.dataGenerationInterval 1s
param **.application.dataSizeInBytes 10
param **.application.ttl 999999s
param **application.destinationAddr "\"Wf:00:00:00:00:02\""
param **application.destinationBTAddr "\"Bt:00:00:00:00:02\""
param **application.nodesThatGen true
param **application.nodesGenMsg "\"0\""
param **application.startMultipleMsg true
param **application.numMultipleMsg 100
param **application.hopsListSize 50
param **.application.endGeneratingMsg 999999s
param **.routingLayer "\"RoutingLqeGw\""
param **.routing.maximumCacheSize 5000byte
param **.routing.maximumHopCount 25
param **.routing.useTTL false
param **.routing.waitBFsend 0.5
param **.routing.max_age 999999s
param **.routing.gateway_list "\"\""
param **.routing.actual_gateway "\"\""
param **.routing.gwCheckPeriod 5s
param **.neighboring.antiEntropyInterval 500ms
param **.neighboring.maximumRandomBackoffDuration 1s
param **.neighboring.delayPerDataMsg 0.1
param **neighboring.usedRNG 2
param **.neighboring.GWAddr "\"Wf:00:00:00:00:02\""
param **.neighboring.sendWifiFirst true
param **.neighboring.maxLengthGraph 20
param **.neighboring.max_age 999999s
param **.neighboring.max_absent_time 1s
param **.wirelessIfc.wirelessRange 40m
param **.wirelessIfc.neighbourScanInterval 50ms
param **.wirelessIfc.bandwidthBitRate 100000bps
param **.wirelessIfc.wirelessHeaderSize 32byte
param **.wirelessIfc.minSSI -90
param **.wirelessIfc.limitQueueTime 400ms
param **.wirelessIfc.my_limit_rate 0bps
param **.bluetoothIfc.wirelessRange 40m
param **.bluetoothIfc.neighbourScanInterval 100ms
param **.bluetoothIfc.bandwidthBitRate 100000bps
param **.bluetoothIfc.wirelessHeaderSize 16byte
param **.bluetoothIfc.minSSI -90
param **.mobilityType "\"BonnMotionMobility\""
param **.mobility.traceFile "\"paths/Moves2.movements\""
param **.mobility.is3D false
param **.mobility.nodeId -1

vector 0 NetworkTormV2 neighbourhoodSize:vector ETV
attr source neighbourhoodSize
vector 1 NetworkTormV2 deliveryRatio:vector ETV
attr source sum(totalDataBytesReceived)/sum(totalDataBytesReceivableByAllNodes)
vector 2 NetworkTormV2 dataBytesReceivedSum:vector ETV
attr source sum(dataBytesReceived)
vector 3 NetworkTormV2 totalBytesReceivedSum:vector ETV
attr source sum(totalBytesReceived)
0	13	0.05	1
0	14	0.05	2
0	15	0.05	1
0	16	0.05	0
0	34	0.1	1
0	36	0.1	2
0	38	0.1	1
0	40	0.1	0
0	42	0.1	1
0	43	0.1	2
0	44	0.1	1
0	45	0.1	0
0	72	0.15	1
0	73	0.15	2
0	74	0.15	1
0	75	0.15	0
0	92	0.2	1
0	93	0.2	2
0	94	0.2	1
0	95	0.2	0
0	97	0.2	1
0	98	0.2	2
0	99	0.2	1
0	100	0.2	0
0	123	0.25	1
0	124	0.25	2
0	125	0.25	1
0	126	0.25	0
0	143	0.3	1
0	144	0.3	2
0	145	0.3	1
0	146	0.3	0
0	148	0.3	1
0	149	0.3	2
0	150	0.3	1
0	151	0.3	0
0	174	0.35	1
0	175	0.35	2
0	176	0.35	1
0	177	0.35	0
0	194	0.4	1
0	195	0.4	2
0	196	0.4	1
0	197	0.4	0
0	199	0.4	1
0	200	0.4	2
0	201	0.4	1
0	202	0.4	0
0	225	0.45	1
0	226	0.45	2
0	227	0.45	1
0	228	0.45	0
0	245	0.5	1
0	246	0.5	2
0	247	0.5	1
0	248	0.5	0
0	250	0.5	1
0	251	0.5	2
0	252	0.5	1
0	253	0.5	0
0	276	0.55	1
0	277	0.55	2
0	278	0.55	1
0	279	0.55	0
0	296	0.6	1
0	297	0.6	2
0	298	0.6	1
0	299	0.6	0
0	301	0.6	1
0	302	0.6	2
0	303	0.6	1
0	304	0.6	0
0	327	0.65	1
0	328	0.65	2
0	329	0.65	1
0	330	0.65	0
0	347	0.7	1
0	348	0.7	2
0	349	0.7	1
0	350	0.7	0
0	352	0.7	1
0	353	0.7	2
0	354	0.7	1
0	355	0.7	0
0	378	0.75	1
0	379	0.75	2
0	380	0.75	1
0	381	0.75	0
0	398	0.8	1
0	399	0.8	2
0	400	0.8	1
0	401	0.8	0
0	403	0.8	1
0	404	0.8	2
0	405	0.8	1
0	406	0.8	0
0	429	0.85	1
0	430	0.85	2
0	431	0.85	1
0	432	0.85	0
0	449	0.9	1
0	450	0.9	2
0	451	0.9	1
0	452	0.9	0
0	454	0.9	1
0	455	0.9	2
0	456	0.9	1
0	457	0.9	0
0	480	0.95	1
0	481	0.95	2
0	482	0.95	1
0	483	0.95	0
0	500	1	1
0	501	1	2
0	502	1	1
0	503	1	0
0	505	1	1
0	506	1	2
0	507	1	1
0	508	1	0
0	531	1.05	1
0	532	1.05	2
0	533	1.05	1
0	534	1.05	0
0	555	1.1	1
0	556	1.1	2
0	557	1.1	1
0	558	1.1	0
0	560	1.1	1
0	561	1.1	2
0	562	1.1	1
0	563	1.1	0
0	666	1.15	1
0	667	1.15	2
0	668	1.15	1
0	669	1.15	0
0	686	1.2	1
0	687	1.2	2
0	688	1.2	1
0	689	1.2	0
0	691	1.2	1
0	692	1.2	2
0	693	1.2	1
0	694	1.2	0
0	717	1.25	1
0	718	1.25	2
0	719	1.25	1
0	720	1.25	0
0	737	1.3	1
0	738	1.3	2
0	739	1.3	1
0	740	1.3	0
0	742	1.3	1
0	743	1.3	2
0	744	1.3	1
0	745	1.3	0
0	768	1.35	1
0	769	1.35	2
0	770	1.35	1
0	771	1.35	0
0	788	1.4	1
0	789	1.4	2
0	790	1.4	1
0	791	1.4	0
0	793	1.4	1
0	794	1.4	2
0	795	1.4	1
0	796	1.4	0
0	819	1.45	1
0	820	1.45	2
0	821	1.45	1
0	822	1.45	0
0	839	1.5	1
0	840	1.5	2
0	841	1.5	1
0	842	1.5	0
0	844	1.5	1
0	845	1.5	2
0	846	1.5	1
0	847	1.5	0
0	870	1.55	1
0	871	1.55	2
0	872	1.55	1
0	873	1.55	0
0	890	1.6	1
0	891	1.6	2
0	892	1.6	1
0	893	1.6	0
0	895	1.6	1
0	896	1.6	2
0	897	1.6	1
0	898	1.6	0
0	921	1.65	1
0	922	1.65	2
0	923	1.65	1
0	924	1.65	0
0	1017	1.7	1
0	1018	1.7	2
0	1019	1.7	1
0	1020	1.7	0
0	1022	1.7	1
0	1023	1.7	2
0	1024	1.7	1
0	1025	1.7	0
0	1048	1.75	1
0	1049	1.75	2
0	1050	1.75	1
0	1051	1.75	0
0	1068	1.8	1
0	1069	1.8	2
0	1070	1.8	1
0	1071	1.8	0
0	1073	1.8	1
0	1074	1.8	2
0	1075	1.8	1
0	1076	1.8	0
0	1099	1.85	1
0	1100	1.85	2
0	1101	1.85	1
0	1102	1.85	0
0	1119	1.9	1
0	1120	1.9	2
0	1121	1.9	1
0	1122	1.9	0
0	1124	1.9	1
0	1125	1.9	2
0	1126	1.9	1
0	1127	1.9	0
0	1150	1.95	1
0	1151	1.95	2
0	1152	1.95	1
0	1153	1.95	0
0	1170	2	1
0	1171	2	2
0	1172	2	1
0	1173	2	0
0	1175	2	1
0	1176	2	2
0	1177	2	1
0	1178	2	0
0	1201	2.05	1
0	1202	2.05	2
0	1203	2.05	1
0	1204	2.05	0
0	1225	2.1	1
0	1226	2.1	2
0	1227	2.1	1
0	1228	2.1	0
0	1230	2.1	1
0	1231	2.1	2
0	1232	2.1	1
0	1233	2.1	0
0	1260	2.15	1
0	1261	2.15	2
0	1262	2.15	1
0	1263	2.15	0
0	1280	2.2	1
0	1281	2.2	2
0	1282	2.2	1
0	1283	2.2	0
0	1285	2.2	1
0	1286	2.2	2
0	1287	2.2	1
0	1288	2.2	0
0	1387	2.25	1
0	1388	2.25	2
0	1389	2.25	1
0	1390	2.25	0
0	1407	2.3	1
0	1408	2.3	2
0	1409	2.3	1
0	1410	2.3	0
0	1412	2.3	1
0	1413	2.3	2
0	1414	2.3	1
0	1415	2.3	0
0	1438	2.35	1
0	1439	2.35	2
0	1440	2.35	1
0	1441	2.35	0
0	1458	2.4	1
0	1459	2.4	2
0	1460	2.4	1
0	1461	2.4	0
0	1463	2.4	1
0	1464	2.4	2
0	1465	2.4	1
0	1466	2.4	0
0	1489	2.45	1
0	1490	2.45	2
0	1491	2.45	1
0	1492	2.45	0
0	1509	2.5	1
0	1510	2.5	2
0	1511	2.5	1
0	1512	2.5	0
0	1514	2.5	1
0	1515	2.5	2
0	1516	2.5	1
0	1517	2.5	0
0	1540	2.55	1
0	1541	2.55	2
0	1542	2.55	1
0	1543	2.55	0
0	1560	2.6	1
0	1561	2.6	2
0	1562	2.6	1
0	1563	2.6	0
0	1565	2.6	1
0	1566	2.6	2
0	1567	2.6	1
0	1568	2.6	0
0	1591	2.65	1
0	1592	2.65	2
0	1593	2.65	1
0	1594	2.65	0
0	1611	2.7	1
0	1612	2.7	2
0	1613	2.7	1
0	1614	2.7	0
0	1616	2.7	1
0	1617	2.7	2
0	1618	2.7	1
0	1619	2.7	0
0	1642	2.75	1
0	1643	2.75	2
0	1644	2.75	1
0	1645	2.75	0
0	1738	2.8	1
0	1739	2.8	2
0	1740	2.8	1
0	1741	2.8	0
0	1743	2.8	1
0	1744	2.8	2
0	1745	2.8	1
0	1746	2.8	0
0	1769	2.85	1
0	1770	2.85	2
0	1771	2.85	1
0	1772	2.85	0
0	1789	2.9	1
0	1790	2.9	2
0	1791	2.9	1
0	1792	2.9	0
0	1794	2.9	1
0	1795	2.9	2
0	1796	2.9	1
0	1797	2.9	0
0	1820	2.95	1
0	1821	2.95	2
0	1822	2.95	1
0	1823	2.95	0
0	1840	3	1
0	1841	3	2
0	1842	3	1
0	1843	3	0
0	1845	3	1
0	1846	3	2
0	1847	3	1
0	1848	3	0
0	1871	3.05	1
0	1872	3.05	2
0	1873	3.05	1
0	1874	3.05	0
0	1895	3.1	1
0	1896	3.1	2
0	1897	3.1	1
0	1898	3.1	0
0	1900	3.1	1
0	1901	3.1	2
0	1902	3.1	1
0	1903	3.1	0
0	1930	3.15	1
0	1931	3.15	2
0	1932	3.15	1
0	1933	3.15	0
0	1950	3.2	1
0	1951	3.2	2
0	1952	3.2	1
0	1953	3.2	0
0	1955	3.2	1
0	1956	3.2	2
0	1957	3.2	1
0	1958	3.2	0
0	1981	3.25	1
0	1982	3.25	2
0	1983	3.25	1
0	1984	3.25	0
0	2001	3.3	1
0	2002	3.3	2
0	2003	3.3	1
0	2004	3.3	0
0	2006	3.3	1
0	2007	3.3	2
0	2008	3.3	1
0	2009	3.3	0
0	2108	3.35	1
0	2109	3.35	2
0	2110	3.35	1
0	2111	3.35	0
0	2128	3.4	1
0	2129	3.4	2
0	2130	3.4	1
0	2131	3.4	0
0	2133	3.4	1
0	2134	3.4	2
0	2135	3.4	1
0	2136	3.4	0
0	2159	3.45	1
0	2160	3.45	2
0	2161	3.45	1
0	2162	3.45	0
0	2179	3.5	1
0	2180	3.5	2
0	2181	3.5	1
0	2182	3.5	0
0	2184	3.5	1
0	2185	3.5	2
0	2186	3.5	1
0	2187	3.5	0
0	2210	3.55	1
0	2211	3.55	2
0	2212	3.55	1
0	2213	3.55	0
0	2230	3.6	1
0	2231	3.6	2
0	2232	3.6	1
0	2233	3.6	0
0	2235	3.6	1
0	2236	3.6	2
0	2237	3.6	1
0	2238	3.6	0
0	2261	3.65	1
0	2262	3.65	2
0	2263	3.65	1
0	2264	3.65	0
0	2281	3.7	1
0	2282	3.7	2
0	2283	3.7	1
0	2284	3.7	0
0	2286	3.7	1
0	2287	3.7	2
0	2288	3.7	1
0	2289	3.7	0
0	2312	3.75	1
0	2313	3.75	2
0	2314	3.75	1
0	2315	3.75	0
0	2332	3.8	1
0	2333	3.8	2
0	2334	3.8	1
0	2335	3.8	0
0	2337	3.8	1
0	2338	3.8	2
0	2339	3.8	1
0	2340	3.8	0
0	2363	3.85	1
0	2364	3.85	2
0	2365	3.85	1
0	2366	3.85	0
0	2455	3.9	1
0	2456	3.9	2
0	2457	3.9	1
0	2458	3.9	0
0	2460	3.9	1
0	2461	3.9	2
0	2462	3.9	1
0	2463	3.9	0
0	2486	3.95	1
0	2487	3.95	2
0	2488	3.95	1
0	2489	3.95	0
0	2506	4	1
0	2507	4	2
0	2508	4	1
0	2509	4	0
0	2511	4	1
0	2512	4	2
0	2513	4	1
0	2514	4	0
0	2537	4.05	1
0	2538	4.05	2
0	2539	4.05	1
0	2540	4.05	0
0	2561	4.1	1
0	2562	4.1	2
0	2563	4.1	1
0	2564	4.1	0
0	2566	4.1	1
0	2567	4.1	2
0	2568	4.1	1
0	2569	4.1	0
0	2596	4.15	1
0	2597	4.15	2
0	2598	4.15	1
0	2599	4.15	0
0	2616	4.2	1
0	2617	4.2	2
0	2618	4.2	1
0	2619	4.2	0
0	2621	4.2	1
0	2622	4.2	2
0	2623	4.2	1
0	2624	4.2	0
0	2647	4.25	1
0	2648	4.25	2
0	2649	4.25	1
0	2650	4.25	0
0	2667	4.3	1
0	2668	4.3	2
0	2669	4.3	1
0	2670	4.3	0
0	2672	4.3	1
0	2673	4.3	2
0	2674	4.3	1
0	2675	4.3	0
0	2698	4.35	1
0	2699	4.35	2
0	2700	4.35	1
0	2701	4.35	0
0	2718	4.4	1
0	2719	4.4	2
0	2720	4.4	1
0	2721	4.4	0
0	2723	4.4	1
0	2724	4.4	2
0	2725	4.4	1
0	2726	4.4	0
0	2825	4.45	1
0	2826	4.45	2
0	2827	4.45	1
0	2828	4.45	0
0	2845	4.5	1
0	2846	4.5	2
0	2847	4.5	1
0	2848	4.5	0
0	2850	4.5	1
0	2851	4.5	2
0	2852	4.5	1
0	2853	4.5	0
0	2876	4.55	1
0	2877	4.55	2
0	2878	4.55	1
0	2879	4.55	0
0	2896	4.6	1
0	2897	4.6	2
0	2898	4.6	1
0	2899	4.6	0
0	2901	4.6	1
0	2902	4.6	2
0	2903	4.6	1
0	2904	4.6	0
0	2927	4.65	1
0	2928	4.65	2
0	2929	4.65	1
0	2930	4.65	0
0	2947	4.7	1
0	2948	4.7	2
0	2949	4.7	1
0	2950	4.7	0
0	2952	4.7	1
0	2953	4.7	2
0	2954	4.7	1
0	2955	4.7	0
0	2978	4.75	1
0	2979	4.75	2
0	2980	4.75	1
0	2981	4.75	0
0	2998	4.8	1
0	2999	4.8	2
0	3000	4.8	1
0	3001	4.8	0
0	3003	4.8	1
0	3004	4.8	2
0	3005	4.8	1
0	3006	4.8	0
0	3029	4.85	1
0	3030	4.85	2
0	3031	4.85	1
0	3032	4.85	0
0	3049	4.9	1
0	3050	4.9	2
0	3051	4.9	1
0	3052	4.9	0
0	3054	4.9	1
0	3055	4.9	2
0	3056	4.9	1
0	3057	4.9	0
0	3080	4.95	1
0	3081	4.95	2
0	3082	4.95	1
0	3083	4.95	0
0	3166	5	1
0	3167	5	2
0	3168	5	1
0	3169	5	0
0	3171	5	1
0	3172	5	2
0	3173	5	1
0	3174	5	0
0	3197	5.05	1
0	3198	5.05	2
0	3199	5.05	1
0	3200	5.05	0
0	3221	5.1	1
0	3222	5.1	2
0	3223	5.1	1
0	3224	5.1	0
0	3226	5.1	1
0	3227	5.1	2
0	3228	5.1	1
0	3229	5.1	0
0	3257	5.15	1
0	3258	5.15	2
0	3259	5.15	1
0	3260	5.15	0
0	3277	5.2	1
0	3278	5.2	2
0	3279	5.2	1
0	3280	5.2	0
0	3282	5.2	1
0	3283	5.2	2
0	3284	5.2	1
0	3285	5.2	0
0	3308	5.25	1
0	3309	5.25	2
0	3310	5.25	1
0	3311	5.25	0
0	3328	5.3	1
0	3329	5.3	2
0	3330	5.3	1
0	3331	5.3	0
0	3333	5.3	1
0	3334	5.3	2
0	3335	5.3	1
0	3336	5.3	0
0	3359	5.35	1
0	3360	5.35	2
0	3361	5.35	1
0	3362	5.35	0
0	3379	5.4	1
0	3380	5.4	2
0	3381	5.4	1
0	3382	5.4	0
0	3384	5.4	1
0	3385	5.4	2
0	3386	5.4	1
0	3387	5.4	0
0	3410	5.45	1
0	3411	5.45	2
0	3412	5.45	1
0	3413	5.45	0
0	3433	5.5	1
0	3434	5.5	2
0	3435	5.5	1
0	3436	5.5	0
0	3438	5.5	1
0	3439	5.5	2
0	3440	5.5	1
0	3441	5.5	0
0	3572	5.55	1
0	3573	5.55	2
0	3574	5.55	1
0	3575	5.55	0
0	3703	5.6	1
0	3704	5.6	2
0	3705	5.6	1
0	3706	5.6	0
0	3708	5.6	1
0	3709	5.6	2
0	3710	5.6	1
0	3711	5.6	0
0	3761	5.65	1
0	3762	5.65	2
0	3763	5.65	1
0	3764	5.65	0
0	3800	5.7	1
0	3801	5.7	2
0	3802	5.7	1
0	3803	5.7	0
0	3805	5.7	1
0	3806	5.7	2
0	3807	5.7	1
0	3808	5.7	0
0	3831	5.75	1
0	3832	5.75	2
0	3833	5.75	1
0	3834	5.75	0
0	3851	5.8	1
0	3852	5.8	2
0	3853	5.8	1
0	3854	5.8	0
0	3856	5.8	1
0	3857	5.8	2
0	3858	5.8	1
0	3859	5.8	0
0	3882	5.85	1
0	3883	5.85	2
0	3884	5.85	1
0	3885	5.85	0
0	3902	5.9	1
0	3903	5.9	2
0	3904	5.9	1
0	3905	5.9	0
0	3907	5.9	1
0	3908	5.9	2
0	3909	5.9	1
0	3910	5.9	0
0	3933	5.95	1
0	3934	5.95	2
0	3935	5.95	1
0	3936	5.95	0
0	3956	6	1
0	3957	6	2
0	3958	6	1
0	3959	6	0
0	3961	6	1
0	3962	6	2
0	3963	6	1
0	3964	6	0
0	3987	6.05	1
0	3988	6.05	2
0	3989	6.05	1
0	3990	6.05	0
0	4090	6.1	1
0	4091	6.1	2
0	4092	6.1	1
0	4093	6.1	0
0	4095	6.1	1
0	4096	6.1	2
0	4097	6.1	1
0	4098	6.1	0
0	4126	6.15	1
0	4127	6.15	2
0	4128	6.15	1
0	4129	6.15	0
0	4146	6.2	1
0	4147	6.2	2
0	4148	6.2	1
0	4149	6.2	0
0	4151	6.2	1
0	4152	6.2	2
0	4153	6.2	1
0	4154	6.2	0
0	4196	6.25	1
0	4197	6.25	2
0	4198	6.25	1
0	4199	6.25	0
0	4216	6.3	1
0	4217	6.3	2
0	4218	6.3	1
0	4219	6.3	0
0	4221	6.3	1
0	4222	6.3	2
0	4223	6.3	1
0	4224	6.3	0
0	4247	6.35	1
0	4248	6.35	2
0	4249	6.35	1
0	4250	6.35	0
0	4267	6.4	1
0	4268	6.4	2
0	4269	6.4	1
0	4270	6.4	0
0	4272	6.4	1
0	4273	6.4	2
0	4274	6.4	1
0	4275	6.4	0
0	4298	6.45	1
0	4299	6.45	2
0	4300	6.45	1
0	4301	6.45	0
0	4321	6.5	1
0	4322	6.5	2
0	4323	6.5	1
0	4324	6.5	0
0	4326	6.5	1
0	4327	6.5	2
0	4328	6.5	1
0	4329	6.5	0
0	4352	6.55	1
0	4353	6.55	2
0	4354	6.55	1
0	4355	6.55	0
0	4372	6.6	1
0	4373	6.6	2
0	4374	6.6	1
0	4375	6.6	0
0	4377	6.6	1
0	4378	6.6	2
0	4379	6.6	1
0	4380	6.6	0
0	4491	6.65	1
0	4492	6.65	2
0	4493	6.65	1
0	4494	6.65	0
0	4517	6.7	1
0	4518	6.7	2
0	4519	6.7	1
0	4520	6.7	0
0	4522	6.7	1
0	4523	6.7	2
0	4524	6.7	1
0	4525	6.7	0
0	4548	6.75	1
0	4549	6.75	2
0	4550	6.75	1
0	4551	6.75	0
0	4587	6.8	1
0	4588	6.8	2
0	4589	6.8	1
0	4590	6.8	0
0	4592	6.8	1
0	4593	6.8	2
0	4594	6.8	1
0	4595	6.8	0
0	4618	6.85	1
0	4619	6.85	2
0	4620	6.85	1
0	4621	6.85	0
0	4638	6.9	1
0	4639	6.9	2
0	4640	6.9	1
0	4641	6.9	0
0	4643	6.9	1
0	4644	6.9	2
0	4645	6.9	1
0	4646	6.9	0
0	4669	6.95	1
0	4670	6.95	2
0	4671	6.95	1
0	4672	6.95	0
0	4692	7	1
0	4693	7	2
0	4694	7	1
0	4695	7	0
0	4697	7	1
0	4698	7	2
0	4699	7	1
0	4700	7	0
0	4723	7.05	1
0	4724	7.05	2
0	4725	7.05	1
0	4726	7.05	0
0	4747	7.1	1
0	4748	7.1	2
0	4749	7.1	1
0	4750	7.1	0
0	4752	7.1	1
0	4753	7.1	2
0	4754	7.1	1
0	4755	7.1	0
0	4783	7.15	1
0	4784	7.15	2
0	4785	7.15	1
0	4786	7.15	0
0	4858	7.2	1
0	4859	7.2	2
0	4860	7.2	1
0	4861	7.2	0
0	4863	7.2	1
0	4864	7.2	2
0	4865	7.2	1
0	4866	7.2	0
0	4889	7.25	1
0	4890	7.25	2
0	4891	7.25	1
0	4892	7.25	0
0	4909	7.3	1
0	4910	7.3	2
0	4911	7.3	1
0	4912	7.3	0
0	4914	7.3	1
0	4915	7.3	2
0	4916	7.3	1
0	4917	7.3	0
0	4964	7.35	1
0	4965	7.35	2
0	4966	7.35	1
0	4967	7.35	0
0	4984	7.4	1
0	4985	7.4	2
0	4986	7.4	1
0	4987	7.4	0
0	4989	7.4	1
0	4990	7.4	2
0	4991	7.4	1
0	4992	7.4	0
0	5015	7.45	1
0	5016	7.45	2
0	5017	7.45	1
0	5018	7.45	0
0	5035	7.5	1
0	5036	7.5	2
0	5037	7.5	1
0	5038	7.5	0
0	5040	7.5	1
0	5041	7.5	2
0	5042	7.5	1
0	5043	7.5	0
0	5066	7.55	1
0	5067	7.55	2
0	5068	7.55	1
0	5069	7.55	0
0	5086	7.6	1
0	5087	7.6	2
0	5088	7.6	1
0	5089	7.6	0
0	5091	7.6	1
0	5092	7.6	2
0	5093	7.6	1
0	5094	7.6	0
0	5117	7.65	1
0	5118	7.65	2
0	5119	7.65	1
0	5120	7.65	0
0	5137	7.7	1
0	5138	7.7	2
0	5139	7.7	1
0	5140	7.7	0
0	5142	7.7	1
0	5143	7.7	2
0	5144	7.7	1
0	5145	7.7	0
0	5187	7.75	1
0	5188	7.75	2
0	5189	7.75	1
0	5190	7.75	0
0	5207	7.8	1
0	5208	7.8	2
0	5209	7.8	1
0	5210	7.8	0
0	5212	7.8	1
0	5213	7.8	2
0	5214	7.8	1
0	5215	7.8	0
0	5238	7.85	1
0	5239	7.85	2
0	5240	7.85	1
0	5241	7.85	0
0	5277	7.9	1
0	5278	7.9	2
0	5279	7.9	1
0	5280	7.9	0
0	5282	7.9	1
0	5283	7.9	2
0	5284	7.9	1
0	5285	7.9	0
0	5308	7.95	1
0	5309	7.95	2
0	5310	7.95	1
0	5311	7.95	0
0	5328	8	1
0	5329	8	2
0	5330	8	1
0	5331	8	0
0	5333	8	1
0	5334	8	2
0	5335	8	1
0	5336	8	0
0	5359	8.05	1
0	5360	8.05	2
0	5361	8.05	1
0	5362	8.05	0
0	5383	8.1	1
0	5384	8.1	2
0	5385	8.1	1
0	5386	8.1	0
0	5388	8.1	1
0	5389	8.1	2
0	5390	8.1	1
0	5391	8.1	0
0	5419	8.15	1
0	5420	8.15	2
0	5421	8.15	1
0	5422	8.15	0
0	5439	8.2	1
0	5440	8.2	2
0	5441	8.2	1
0	5442	8.2	0
0	5444	8.2	1
0	5445	8.2	2
0	5446	8.2	1
0	5447	8.2	0
0	5470	8.25	1
0	5471	8.25	2
0	5472	8.25	1
0	5473	8.25	0
0	5505	8.3	1
0	5506	8.3	2
0	5507	8.3	1
0	5508	8.3	0
0	5510	8.3	1
0	5511	8.3	2
0	5512	8.3	1
0	5513	8.3	0
0	5536	8.35	1
0	5537	8.35	2
0	5538	8.35	1
0	5539	8.35	0
0	5556	8.4	1
0	5557	8.4	2
0	5558	8.4	1
0	5559	8.4	0
0	5561	8.4	1
0	5562	8.4	2
0	5563	8.4	1
0	5564	8.4	0
0	5606	8.45	1
0	5607	8.45	2
0	5608	8.45	1
0	5609	8.45	0
0	5626	8.5	1
0	5627	8.5	2
0	5628	8.5	1
0	5629	8.5	0
0	5631	8.5	1
0	5632	8.5	2
0	5633	8.5	1
0	5634	8.5	0
0	5657	8.55	1
0	5658	8.55	2
0	5659	8.55	1
0	5660	8.55	0
0	5677	8.6	1
0	5678	8.6	2
0	5679	8.6	1
0	5680	8.6	0
0	5682	8.6	1
0	5683	8.6	2
0	5684	8.6	1
0	5685	8.6	0
0	5708	8.65	1
0	5709	8.65	2
0	5710	8.65	1
0	5711	8.65	0
0	5728	8.7	1
0	5729	8.7	2
0	5730	8.7	1
0	5731	8.7	0
0	5733	8.7	1
0	5734	8.7	2
0	5735	8.7	1
0	5736	8.7	0
0	5759	8.75	1
0	5760	8.75	2
0	5761	8.75	1
0	5762	8.75	0
0	5798	8.8	1
0	5799	8.8	2
0	5800	8.8	1
0	5801	8.8	0
0	5803	8.8	1
0	5804	8.8	2
0	5805	8.8	1
0	5806	8.8	0
0	5865	8.85	1
0	5866	8.85	2
0	5867	8.85	1
0	5868	8.85	0
0	5885	8.9	1
0	5886	8.9	2
0	5887	8.9	1
0	5888	8.9	0
0	5890	8.9	1
0	5891	8.9	2
0	5892	8.9	1
0	5893	8.9	0
0	5963	8.95	1
0	5964	8.95	2
0	5965	8.95	1
0	5966	8.95	0
0	6008	9	1
0	6009	9	2
0	6010	9	1
0	6011	9	0
0	6013	9	1
0	6014	9	2
0	6015	9	1
0	6016	9	0
0	6039	9.05	1
0	6040	9.05	2
0	6041	9.05	1
0	6042	9.05	0
0	6063	9.1	1
0	6064	9.1	2
0	6065	9.1	1
0	6066	9.1	0
0	6068	9.1	1
0	6069	9.1	2
0	6070	9.1	1
0	6071	9.1	0
0	6099	9.15	1
0	6100	9.15	2
0	6101	9.15	1
0	6102	9.15	0
0	6119	9.2	1
0	6120	9.2	2
0	6121	9.2	1
0	6122	9.2	0
0	6124	9.2	1
0	6125	9.2	2
0	6126	9.2	1
0	6127	9.2	0
0	6150	9.25	1
0	6151	9.25	2
0	6152	9.25	1
0	6153	9.25	0
0	6170	9.3	1
0	6171	9.3	2
0	6172	9.3	1
0	6173	9.3	0
0	6175	9.3	1
0	6176	9.3	2
0	6177	9.3	1
0	6178	9.3	0
0	6220	9.35	1
0	6221	9.35	2
0	6222	9.35	1
0	6223	9.35	0
0	6255	9.4	1
0	6256	9.4	2
0	6257	9.4	1
0	6258	9.4	0
0	6260	9.4	1
0	6261	9.4	2
0	6262	9.4	1
0	6263	9.4	0
0	6286	9.45	1
0	6287	9.45	2
0	6288	9.45	1
0	6289	9.45	0
0	6342	9.5	1
0	6343	9.5	2
0	6344	9.5	1
0	6345	9.5	0
0	6347	9.5	1
0	6348	9.5	2
0	6349	9.5	1
0	6350	9.5	0
0	6392	9.55	1
0	6393	9.55	2
0	6394	9.55	1
0	6395	9.55	0
0	6412	9.6	1
0	6413	9.6	2
0	6414	9.6	1
0	6415	9.6	0
0	6417	9.6	1
0	6418	9.6	2
0	6419	9.6	1
0	6420	9.6	0
0	6443	9.65	1
0	6444	9.65	2
0	6445	9.65	1
0	6446	9.65	0
0	6463	9.7	1
0	6464	9.7	2
0	6465	9.7	1
0	6466	9.7	0
0	6468	9.7	1
0	6469	9.7	2
0	6470	9.7	1
0	6471	9.7	0
0	6494	9.75	1
0	6495	9.75	2
0	6496	9.75	1
0	6497	9.75	0
0	6514	9.8	1
0	6515	9.8	2
0	6516	9.8	1
0	6517	9.8	0
0	6519	9.8	1
0	6520	9.8	2
0	6521	9.8	1
0	6522	9.8	0
0	6545	9.85	1
0	6546	9.85	2
0	6547	9.85	1
0	6548	9.85	0
0	6584	9.9	1
0	6585	9.9	2
0	6586	9.9	1
0	6587	9.9	0
0	6589	9.9	1
0	6590	9.9	2
0	6591	9.9	1
0	6592	9.9	0
0	6651	9.95	1
0	6652	9.95	2
0	6653	9.95	1
0	6654	9.95	0
0	6672	10	1
0	6673	10	2
0	6674	10	1
0	6675	10	0
0	6677	10	1
0	6678	10	2
0	6679	10	1
0	6680	10	0
0	6722	10.05	1
0	6723	10.05	2
0	6724	10.05	1
0	6725	10.05	0
0	6765	10.1	1
0	6766	10.1	2
0	6767	10.1	1
0	6768	10.1	0
0	6770	10.1	1
0	6771	10.1	2
0	6772	10.1	1
0	6773	10.1	0
0	6801	10.15	1
0	6802	10.15	2
0	6803	10.15	1
0	6804	10.15	0
0	6821	10.2	1
0	6822	10.2	2
0	6823	10.2	1
0	6824	10.2	0
0	6826	10.2	1
0	6827	10.2	2
0	6828	10.2	1
0	6829	10.2	0
0	6852	10.25	1
0	6853	10.25	2
0	6854	10.25	1
0	6855	10.25	0
0	6872	10.3	1
0	6873	10.3	2
0	6874	10.3	1
0	6875	10.3	0
0	6877	10.3	1
0	6878	10.3	2
0	6879	10.3	1
0	6880	10.3	0
0	6903	10.35	1
0	6904	10.35	2
0	6905	10.35	1
0	6906	10.35	0
0	6923	10.4	1
0	6924	10.4	2
0	6925	10.4	1
0	6926	10.4	0
0	6928	10.4	1
0	6929	10.4	2
0	6930	10.4	1
0	6931	10.4	0
0	6973	10.45	1
0	6974	10.45	2
0	6975	10.45	1
0	6976	10.45	0
0	7029	10.5	1
0	7030	10.5	2
0	7031	10.5	1
0	7032	10.5	0
0	7034	10.5	1
0	7035	10.5	2
0	7036	10.5	1
0	7037	10.5	0
0	7060	10.55	1
0	7061	10.55	2
0	7062	10.55	1
0	7063	10.55	0
0	7116	10.6	1
0	7117	10.6	2
0	7118	10.6	1
0	7119	10.6	0
0	7121	10.6	1
0	7122	10.6	2
0	7123	10.6	1
0	7124	10.6	0
0	7166	10.65	1
0	7167	10.65	2
0	7168	10.65	1
0	7169	10.65	0
0	7186	10.7	1
0	7187	10.7	2
0	7188	10.7	1
0	7189	10.7	0
0	7191	10.7	1
0	7192	10.7	2
0	7193	10.7	1
0	7194	10.7	0
0	7217	10.75	1
0	7218	10.75	2
0	7219	10.75	1
0	7220	10.75	0
0	7237	10.8	1
0	7238	10.8	2
0	7239	10.8	1
0	7240	10.8	0
0	7242	10.8	1
0	7243	10.8	2
0	7244	10.8	1
0	7245	10.8	0
0	7268	10.85	1
0	7269	10.85	2
0	7270	10.85	1
0	7271	10.85	0
0	7288	10.9	1
0	7289	10.9	2
0	7290	10.9	1
0	7291	10.9	0
0	7293	10.9	1
0	7294	10.9	2
0	7295	10.9	1
0	7296	10.9	0
0	7319	10.95	1
0	7320	10.95	2
0	7321	10.95	1
0	7322	10.95	0
0	7358	11	1
0	7359	11	2
0	7360	11	1
0	7361	11	0
0	7363	11	1
0	7364	11	2
0	7365	11	1
0	7366	11	0
0	7408	11.05	1
0	7409	11.05	2
0	7410	11.05	1
0	7411	11.05	0
0	7432	11.1	1
0	7433	11.1	2
0	7434	11.1	1
0	7435	11.1	0
0	7437	11.1	1
0	7438	11.1	2
0	7439	11.1	1
0	7440	11.1	0
0	7504	11.15	1
0	7505	11.15	2
0	7506	11.15	1
0	7507	11.15	0
0	7529	11.2	1
0	7530	11.2	2
0	7531	11.2	1
0	7532	11.2	0
0	7534	11.2	1
0	7535	11.2	2
0	7536	11.2	1
0	7537	11.2	0
0	7560	11.25	1
0	7561	11.25	2
0	7562	11.25	1
0	7563	11.25	0
0	7580	11.3	1
0	7581	11.3	2
0	7582	11.3	1
0	7583	11.3	0
0	7585	11.3	1
0	7586	11.3	2
0	7587	11.3	1
0	7588	11.3	0
0	7611	11.35	1
0	7612	11.35	2
0	7613	11.35	1
0	7614	11.35	0
0	7631	11.4	1
0	7632	11.4	2
0	7633	11.4	1
0	7634	11.4	0
0	7636	11.4	1
0	7637	11.4	2
0	7638	11.4	1
0	7639	11.4	0
0	7662	11.45	1
0	7663	11.45	2
0	7664	11.45	1
0	7665	11.45	0
0	7682	11.5	1
0	7683	11.5	2
0	7684	11.5	1
0	7685	11.5	0
0	7687	11.5	1
0	7688	11.5	2
0	7689	11.5	1
0	7690	11.5	0
0	7732	11.55	1
0	7733	11.55	2
0	7734	11.55	1
0	7735	11.55	0
0	7752	11.6	1
0	7753	11.6	2
0	7754	11.6	1
0	7755	11.6	0
0	7757	11.6	1
0	7758	11.6	2
0	7759	11.6	1
0	7760	11.6	0
0	7783	11.65	1
0	7784	11.65	2
0	7785	11.65	1
0	7786	11.65	0
0	7822	11.7	1
0	7823	11.7	2
0	7824	11.7	1
0	7825	11.7	0
0	7827	11.7	1
0	7828	11.7	2
0	7829	11.7	1
0	7830	11.7	0
0	7853	11.75	1
0	7854	11.75	2
0	7855	11.75	1
0	7856	11.75	0
0	7873	11.8	1
0	7874	11.8	2
0	7875	11.8	1
0	7876	11.8	0
0	7878	11.8	1
0	7879	11.8	2
0	7880	11.8	1
0	7881	11.8	0
0	7904	11.85	1
0	7905	11.85	2
0	7906	11.85	1
0	7907	11.85	0
0	7924	11.9	1
0	7925	11.9	2
0	7926	11.9	1
0	7927	11.9	0
0	7929	11.9	1
0	7930	11.9	2
0	7931	11.9	1
0	7932	11.9	0
0	7955	11.95	1
0	7956	11.95	2
0	7957	11.95	1
0	7958	11.95	0
0	7978	12	1
0	7979	12	2
0	7980	12	1
0	7981	12	0
0	7983	12	1
0	7984	12	2
0	7985	12	1
0	7986	12	0
0	8009	12.05	1
0	8010	12.05	2
0	8011	12.05	1
0	8012	12.05	0
0	8052	12.1	1
0	8053	12.1	2
0	8054	12.1	1
0	8055	12.1	0
0	8057	12.1	1
0	8058	12.1	2
0	8059	12.1	1
0	8060	12.1	0
0	8088	12.15	1
0	8089	12.15	2
0	8090	12.15	1
0	8091	12.15	0
0	8108	12.2	1
0	8109	12.2	2
0	8110	12.2	1
0	8111	12.2	0
0	8113	12.2	1
0	8114	12.2	2
0	8115	12.2	1
0	8116	12.2	0
0	8175	12.25	1
0	8176	12.25	2
0	8177	12.25	1
0	8178	12.25	0
0	8195	12.3	1
0	8196	12.3	2
0	8197	12.3	1
0	8198	12.3	0
0	8200	12.3	1
0	8201	12.3	2
0	8202	12.3	1
0	8203	12.3	0
0	8226	12.35	1
0	8227	12.35	2
0	8228	12.35	1
0	8229	12.35	0
0	8246	12.4	1
0	8247	12.4	2
0	8248	12.4	1
0	8249	12.4	0
0	8251	12.4	1
0	8252	12.4	2
0	8253	12.4	1
0	8254	12.4	0
0	8277	12.45	1
0	8278	12.45	2
0	8279	12.45	1
0	8280	12.45	0
0	8297	12.5	1
0	8298	12.5	2
0	8299	12.5	1
0	8300	12.5	0
0	8302	12.5	1
0	8303	12.5	2
0	8304	12.5	1
0	8305	12.5	0
0	8328	12.55	1
0	8329	12.55	2
0	8330	12.55	1
0	8331	12.55	0
0	8348	12.6	1
0	8349	12.6	2
0	8350	12.6	1
0	8351	12.6	0
0	8353	12.6	1
0	8354	12.6	2
0	8355	12.6	1
0	8356	12.6	0
0	8445	12.65	1
0	8446	12.65	2
0	8447	12.65	1
0	8448	12.65	0
0	8471	12.7	1
0	8472	12.7	2
0	8473	12.7	1
0	8474	12.7	0
0	8476	12.7	1
0	8477	12.7	2
0	8478	12.7	1
0	8479	12.7	0
0	8502	12.75	1
0	8503	12.75	2
0	8504	12.75	1
0	8505	12.75	0
0	8560	12.8	1
0	8561	12.8	2
0	8562	12.8	1
0	8563	12.8	0
0	8565	12.8	1
0	8566	12.8	2
0	8567	12.8	1
0	8568	12.8	0
0	8591	12.85	1
0	8592	12.85	2
0	8593	12.85	1
0	8594	12.85	0
0	8611	12.9	1
0	8612	12.9	2
0	8613	12.9	1
0	8614	12.9	0
0	8616	12.9	1
0	8617	12.9	2
0	8618	12.9	1
0	8619	12.9	0
0	8642	12.95	1
0	8643	12.95	2
0	8644	12.95	1
0	8645	12.95	0
0	8662	13	1
0	8663	13	2
0	8664	13	1
0	8665	13	0
0	8667	13	1
0	8668	13	2
0	8669	13	1
0	8670	13	0
0	8693	13.05	1
0	8694	13.05	2
0	8695	13.05	1
0	8696	13.05	0
0	8717	13.1	1
0	8718	13.1	2
0	8719	13.1	1
0	8720	13.1	0
0	8722	13.1	1
0	8723	13.1	2
0	8724	13.1	1
0	8725	13.1	0
0	8753	13.15	1
0	8754	13.15	2
0	8755	13.15	1
0	8756	13.15	0
0	8807	13.2	1
0	8808	13.2	2
0	8809	13.2	1
0	8810	13.2	0
0	8812	13.2	1
0	8813	13.2	2
0	8814	13.2	1
0	8815	13.2	0
0	8838	13.25	1
0	8839	13.25	2
0	8840	13.25	1
0	8841	13.25	0
0	8858	13.3	1
0	8859	13.3	2
0	8860	13.3	1
0	8861	13.3	0
0	8863	13.3	1
0	8864	13.3	2
0	8865	13.3	1
0	8866	13.3	0
0	8941	13.35	1
0	8942	13.35	2
0	8943	13.35	1
0	8944	13.35	0
0	8961	13.4	1
0	8962	13.4	2
0	8963	13.4	1
0	8964	13.4	0
0	8966	13.4	1
0	8967	13.4	2
0	8968	13.4	1
0	8969	13.4	0
0	8992	13.45	1
0	8993	13.45	2
0	8994	13.45	1
0	8995	13.45	0
0	9012	13.5	1
0	9013	13.5	2
0	9014	13.5	1
0	9015	13.5	0
0	9017	13.5	1
0	9018	13.5	2
0	9019	13.5	1
0	9020	13.5	0
0	9043	13.55	1
0	9044	13.55	2
0	9045	13.55	1
0	9046	13.55	0
0	9063	13.6	1
0	9064	13.6	2
0	9065	13.6	1
0	9066	13.6	0
0	9068	13.6	1
0	9069	13.6	2
0	9070	13.6	1
0	9071	13.6	0
0	9094	13.65	1
0	9095	13.65	2
0	9096	13.65	1
0	9097	13.65	0
0	9114	13.7	1
0	9115	13.7	2
0	9116	13.7	1
0	9117	13.7	0
0	9119	13.7	1
0	9120	13.7	2
0	9121	13.7	1
0	9122	13.7	0
0	9200	13.75	1
0	9201	13.75	2
0	9202	13.75	1
0	9203	13.75	0
0	9220	13.8	1
0	9221	13.8	2
0	9222	13.8	1
0	9223	13.8	0
0	9225	13.8	1
0	9226	13.8	2
0	9227	13.8	1
0	9228	13.8	0
0	9251	13.85	1
0	9252	13.85	2
0	9253	13.85	1
0	9254	13.85	0
0	9326	13.9	1
0	9327	13.9	2
0	9328	13.9	1
0	9329	13.9	0
0	9331	13.9	1
0	9332	13.9	2
0	9333	13.9	1
0	9334	13.9	0
0	9357	13.95	1
0	9358	13.95	2
0	9359	13.95	1
0	9360	13.95	0
0	9377	14	1
0	9378	14	2
0	9379	14	1
0	9380	14	0
0	9382	14	1
0	9383	14	2
0	9384	14	1
0	9385	14	0
0	9408	14.05	1
0	9409	14.05	2
0	9410	14.05	1
0	9411	14.05	0
0	9432	14.1	1
0	9433	14.1	2
0	9434	14.1	1
0	9435	14.1	0
0	9437	14.1	1
0	9438	14.1	2
0	9439	14.1	1
0	9440	14.1	0
0	9468	14.15	1
0	9469	14.15	2
0	9470	14.15	1
0	9471	14.15	0
0	9488	14.2	1
0	9489	14.2	2
0	9490	14.2	1
0	9491	14.2	0
0	9493	14.2	1
0	9494	14.2	2
0	9495	14.2	1
0	9496	14.2	0
0	9519	14.25	1
0	9520	14.25	2
0	9521	14.25	1
0	9522	14.25	0
0	9580	14.3	1
0	9581	14.3	2
0	9582	14.3	1
0	9583	14.3	0
0	9585	14.3	1
0	9586	14.3	2
0	9587	14.3	1
0	9588	14.3	0
0	9611	14.35	1
0	9612	14.35	2
0	9613	14.35	1
0	9614	14.35	0
0	9631	14.4	1
0	9632	14.4	2
0	9633	14.4	1
0	9634	14.4	0
0	9636	14.4	1
0	9637	14.4	2
0	9638	14.4	1
0	9639	14.4	0
0	9681	14.45	1
0	9682	14.45	2
0	9683	14.45	1
0	9684	14.45	0
0	9701	14.5	1
0	9702	14.5	2
0	9703	14.5	1
0	9704	14.5	0
0	9706	14.5	1
0	9707	14.5	2
0	9708	14.5	1
0	9709	14.5	0
0	9732	14.55	1
0	9733	14.55	2
0	9734	14.55	1
0	9735	14.55	0
0	9752	14.6	1
0	9753	14.6	2
0	9754	14.6	1
0	9755	14.6	0
0	9757	14.6	1
0	9758	14.6	2
0	9759	14.6	1
0	9760	14.6	0
0	9783	14.65	1
0	9784	14.65	2
0	9785	14.65	1
0	9786	14.65	0
0	9803	14.7	1
0	9804	14.7	2
0	9805	14.7	1
0	9806	14.7	0
0	9808	14.7	1
0	9809	14.7	2
0	9810	14.7	1
0	9811	14.7	0
0	9834	14.75	1
0	9835	14.75	2
0	9836	14.75	1
0	9837	14.75	0
0	9854	14.8	1
0	9855	14.8	2
0	9856	14.8	1
0	9857	14.8	0
0	9859	14.8	1
0	9860	14.8	2
0	9861	14.8	1
0	9862	14.8	0
0	9900	14.85	1
0	9901	14.85	2
0	9902	14.85	1
0	9903	14.85	0
0	9920	14.9	1
0	9921	14.9	2
0	9922	14.9	1
0	9923	14.9	0
0	9925	14.9	1
0	9926	14.9	2
0	9927	14.9	1
0	9928	14.9	0
0	9951	14.95	1
0	9952	14.95	2
0	9953	14.95	1
0	9954	14.95	0
0	9991	15	1
0	9992	15	2
0	9993	15	1
0	9994	15	0
0	9996	15	1
0	9997	15	2
0	9998	15	1
0	9999	15	0
0	10022	15.05	1
0	10023	15.05	2
0	10024	15.05	1
0	10025	15.05	0
0	10046	15.1	1
0	10047	15.1	2
0	10048	15.1	1
0	10049	15.1	0
0	10051	15.1	1
0	10052	15.1	2
0	10053	15.1	1
0	10054	15.1	0
0	10082	15.15	1
0	10083	15.15	2
0	10084	15.15	1
0	10085	15.15	0
0	10102	15.2	1
0	10103	15.2	2
0	10104	15.2	1
0	10105	15.2	0
0	10107	15.2	1
0	10108	15.2	2
0	10109	15.2	1
0	10110	15.2	0
0	10133	15.25	1
0	10134	15.25	2
0	10135	15.25	1
0	10136	15.25	0
0	10153	15.3	1
0	10154	15.3	2
0	10155	15.3	1
0	10156	15.3	0
0	10158	15.3	1
0	10159	15.3	2
0	10160	15.3	1
0	10161	15.3	0
0	10184	15.35	1
0	10185	15.35	2
0	10186	15.35	1
0	10187	15.35	0
0	10240	15.4	1
0	10241	15.4	2
0	10242	15.4	1
0	10243	15.4	0
0	10245	15.4	1
0	10246	15.4	2
0	10247	15.4	1
0	10248	15.4	0
0	10271	15.45	1
0	10272	15.45	2
0	10273	15.45	1
0	10274	15.45	0
0	10338	15.5	1
0	10339	15.5	2
0	10340	15.5	1
0	10341	15.5	0
0	10343	15.5	1
0	10344	15.5	2
0	10345	15.5	1
0	10346	15.5	0
0	10394	15.55	1
0	10395	15.55	2
0	10396	15.55	1
0	10397	15.55	0
0	10414	15.6	1
0	10415	15.6	2
0	10416	15.6	1
0	10417	15.6	0
0	10419	15.6	1
0	10420	15.6	2
0	10421	15.6	1
0	10422	15.6	0
0	10464	15.65	1
0	10465	15.65	2
0	10466	15.65	1
0	10467	15.65	0
0	10484	15.7	1
0	10485	15.7	2
0	10486	15.7	1
0	10487	15.7	0
0	10489	15.7	1
0	10490	15.7	2
0	10491	15.7	1
0	10492	15.7	0
0	10515	15.75	1
0	10516	15.75	2
0	10517	15.75	1
0	10518	15.75	0
0	10535	15.8	1
0	10536	15.8	2
0	10537	15.8	1
0	10538	15.8	0
0	10540	15.8	1
0	10541	15.8	2
0	10542	15.8	1
0	10543	15.8	0
0	10566	15.85	1
0	10567	15.85	2
0	10568	15.85	1
0	10569	15.85	0
0	10586	15.9	1
0	10587	15.9	2
0	10588	15.9	1
0	10589	15.9	0
0	10591	15.9	1
0	10592	15.9	2
0	10593	15.9	1
0	10594	15.9	0
0	10636	15.95	1
0	10637	15.95	2
0	10638	15.95	1
0	10639	15.95	0
0	10656	16	1
0	10657	16	2
0	10658	16	1
0	10659	16	0
0	10661	16	1
0	10662	16	2
0	10663	16	1
0	10664	16	0
0	10706	16.05	1
0	10707	16.05	2
0	10708	16.05	1
0	10709	16.05	0
0	10749	16.1	1
0	10750	16.1	2
0	10751	16.1	1
0	10752	16.1	0
0	10754	16.1	1
0	10755	16.1	2
0	10756	16.1	1
0	10757	16.1	0
0	10785	16.15	1
0	10786	16.15	2
0	10787	16.15	1
0	10788	16.15	0
0	10824	16.2	1
0	10825	16.2	2
0	10826	16.2	1
0	10827	16.2	0
0	10829	16.2	1
0	10830	16.2	2
0	10831	16.2	1
0	10832	16.2	0
0	10855	16.25	1
0	10856	16.25	2
0	10857	16.25	1
0	10858	16.25	0
0	10875	16.3	1
0	10876	16.3	2
0	10877	16.3	1
0	10878	16.3	0
0	10880	16.3	1
0	10881	16.3	2
0	10882	16.3	1
0	10883	16.3	0
0	10906	16.35	1
0	10907	16.35	2
0	10908	16.35	1
0	10909	16.35	0
0	10926	16.4	1
0	10927	16.4	2
0	10928	16.4	1
0	10929	16.4	0
0	10931	16.4	1
0	10932	16.4	2
0	10933	16.4	1
0	10934	16.4	0
0	10957	16.45	1
0	10958	16.45	2
0	10959	16.45	1
0	10960	16.45	0
0	11013	16.5	1
0	11014	16.5	2
0	11015	16.5	1
0	11016	16.5	0
0	11018	16.5	1
0	11019	16.5	2
0	11020	16.5	1
0	11021	16.5	0
0	11044	16.55	1
0	11045	16.55	2
0	11046	16.55	1
0	11047	16.55	0
0	11088	16.6	1
0	11089	16.6	2
0	11090	16.6	1
0	11091	16.6	0
0	11093	16.6	1
0	11094	16.6	2
0	11095	16.6	1
0	11096	16.6	0
0	11138	16.65	1
0	11139	16.65	2
0	11140	16.65	1
0	11141	16.65	0
0	11158	16.7	1
0	11159	16.7	2
0	11160	16.7	1
0	11161	16.7	0
0	11163	16.7	1
0	11164	16.7	2
0	11165	16.7	1
0	11166	16.7	0
0	11208	16.75	1
0	11209	16.75	2
0	11210	16.75	1
0	11211	16.75	0
0	11228	16.8	1
0	11229	16.8	2
0	11230	16.8	1
0	11231	16.8	0
0	11233	16.8	1
0	11234	16.8	2
0	11235	16.8	1
0	11236	16.8	0
0	11259	16.85	1
0	11260	16.85	2
0	11261	16.85	1
0	11262	16.85	0
0	11279	16.9	1
0	11280	16.9	2
0	11281	16.9	1
0	11282	16.9	0
0	11284	16.9	1
0	11285	16.9	2
0	11286	16.9	1
0	11287	16.9	0
0	11310	16.95	1
0	11311	16.95	2
0	11312	16.95	1
0	11313	16.95	0
0	11333	17	1
0	11334	17	2
0	11335	17	1
0	11336	17	0
0	11338	17	1
0	11339	17	2
0	11340	17	1
0	11341	17	0
0	11383	17.05	1
0	11384	17.05	2
0	11385	17.05	1
0	11386	17.05	0
0	11407	17.1	1
0	11408	17.1	2
0	11409	17.1	1
0	11410	17.1	0
0	11412	17.1	1
0	11413	17.1	2
0	11414	17.1	1
0	11415	17.1	0
0	11490	17.15	1
0	11491	17.15	2
0	11492	17.15	1
0	11493	17.15	0
0	11521	17.2	1
0	11522	17.2	2
0	11523	17.2	1
0	11524	17.2	0
0	11526	17.2	1
0	11527	17.2	2
0	11528	17.2	1
0	11529	17.2	0
0	11552	17.25	1
0	11553	17.25	2
0	11554	17.25	1
0	11555	17.25	0
0	11587	17.3	1
0	11588	17.3	2
0	11589	17.3	1
0	11590	17.3	0
0	11592	17.3	1
0	11593	17.3	2
0	11594	17.3	1
0	11595	17.3	0
0	11618	17.35	1
0	11619	17.35	2
0	11620	17.35	1
0	11621	17.35	0
0	11638	17.4	1
0	11639	17.4	2
0	11640	17.4	1
0	11641	17.4	0
0	11643	17.4	1
0	11644	17.4	2
0	11645	17.4	1
0	11646	17.4	0
0	11669	17.45	1
0	11670	17.45	2
0	11671	17.45	1
0	11672	17.45	0
0	11689	17.5	1
0	11690	17.5	2
0	11691	17.5	1
0	11692	17.5	0
0	11694	17.5	1
0	11695	17.5	2
0	11696	17.5	1
0	11697	17.5	0
0	11720	17.55	1
0	11721	17.55	2
0	11722	17.55	1
0	11723	17.55	0
0	11740	17.6	1
0	11741	17.6	2
0	11742	17.6	1
0	11743	17.6	0
0	11745	17.6	1
0	11746	17.6	2
0	11747	17.6	1
0	11748	17.6	0
0	11771	17.65	1
0	11772	17.65	2
0	11773	17.65	1
0	11774	17.65	0
0	11796	17.7	1
0	11797	17.7	2
0	11798	17.7	1
0	11799	17.7	0
0	11801	17.7	1
0	11802	17.7	2
0	11803	17.7	1
0	11804	17.7	0
0	11827	17.75	1
0	11828	17.75	2
0	11829	17.75	1
0	11830	17.75	0
0	11847	17.8	1
0	11848	17.8	2
0	11849	17.8	1
0	11850	17.8	0
0	11852	17.8	1
0	11853	17.8	2
0	11854	17.8	1
0	11855	17.8	0
0	11878	17.85	1
0	11879	17.85	2
0	11880	17.85	1
0	11881	17.85	0
0	11898	17.9	1
0	11899	17.9	2
0	11900	17.9	1
0	11901	17.9	0
0	11903	17.9	1
0	11904	17.9	2
0	11905	17.9	1
0	11906	17.9	0
0	11929	17.95	1
0	11930	17.95	2
0	11931	17.95	1
0	11932	17.95	0
0	11949	18	1
0	11950	18	2
0	11951	18	1
0	11952	18	0
0	11954	18	1
0	11955	18	2
0	11956	18	1
0	11957	18	0
0	11980	18.05	1
0	11981	18.05	2
0	11982	18.05	1
0	11983	18.05	0
0	12004	18.1	1
0	12005	18.1	2
0	12006	18.1	1
0	12007	18.1	0
0	12009	18.1	1
0	12010	18.1	2
0	12011	18.1	1
0	12012	18.1	0
0	12040	18.15	1
0	12041	18.15	2
0	12042	18.15	1
0	12043	18.15	0
0	12060	18.2	1
0	12061	18.2	2
0	12062	18.2	1
0	12063	18.2	0
0	12065	18.2	1
0	12066	18.2	2
0	12067	18.2	1
0	12068	18.2	0
0	12091	18.25	1
0	12092	18.25	2
0	12093	18.25	1
0	12094	18.25	0
0	12111	18.3	1
0	12112	18.3	2
0	12113	18.3	1
0	12114	18.3	0
0	12116	18.3	1
0	12117	18.3	2
0	12118	18.3	1
0	12119	18.3	0
0	12142	18.35	1
0	12143	18.35	2
0	12144	18.35	1
0	12145	18.35	0
0	12162	18.4	1
0	12163	18.4	2
0	12164	18.4	1
0	12165	18.4	0
0	12167	18.4	1
0	12168	18.4	2
0	12169	18.4	1
0	12170	18.4	0
0	12193	18.45	1
0	12194	18.45	2
0	12195	18.45	1
0	12196	18.45	0
0	12213	18.5	1
0	12214	18.5	2
0	12215	18.5	1
0	12216	18.5	0
0	12218	18.5	1
0	12219	18.5	2
0	12220	18.5	1
0	12221	18.5	0
0	12244	18.55	1
0	12245	18.55	2
0	12246	18.55	1
0	12247	18.55	0
0	12264	18.6	1
0	12265	18.6	2
0	12266	18.6	1
0	12267	18.6	0
0	12269	18.6	1
0	12270	18.6	2
0	12271	18.6	1
0	12272	18.6	0
0	12342	18.65	1
0	12343	18.65	2
0	12344	18.65	1
0	12345	18.65	0
0	12365	18.7	1
0	12366	18.7	2
0	12367	18.7	1
0	12368	18.7	0
0	12370	18.7	1
0	12371	18.7	2
0	12372	18.7	1
0	12373	18.7	0
0	12396	18.75	1
0	12397	18.75	2
0	12398	18.75	1
0	12399	18.75	0
0	12435	18.8	1
0	12436	18.8	2
0	12437	18.8	1
0	12438	18.8	0
0	12440	18.8	1
0	12441	18.8	2
0	12442	18.8	1
0	12443	18.8	0
0	12466	18.85	1
0	12467	18.85	2
0	12468	18.85	1
0	12469	18.85	0
0	12505	18.9	1
0	12506	18.9	2
0	12507	18.9	1
0	12508	18.9	0
0	12510	18.9	1
0	12511	18.9	2
0	12512	18.9	1
0	12513	18.9	0
0	12536	18.95	1
0	12537	18.95	2
0	12538	18.95	1
0	12539	18.95	0
0	12556	19	1
0	12557	19	2
0	12558	19	1
0	12559	19	0
0	12561	19	1
0	12562	19	2
0	12563	19	1
0	12564	19	0
0	12623	19.05	1
0	12624	19.05	2
0	12625	19.05	1
0	12626	19.05	0
0	12647	19.1	1
0	12648	19.1	2
0	12649	19.1	1
0	12650	19.1	0
0	12652	19.1	1
0	12653	19.1	2
0	12654	19.1	1
0	12655	19.1	0
0	12683	19.15	1
0	12684	19.15	2
0	12685	19.15	1
0	12686	19.15	0
0	12750	19.2	1
0	12751	19.2	2
0	12752	19.2	1
0	12753	19.2	0
0	12755	19.2	1
0	12756	19.2	2
0	12757	19.2	1
0	12758	19.2	0
0	12787	19.25	1
0	12788	19.25	2
0	12789	19.25	1
0	12790	19.25	0
0	12807	19.3	1
0	12808	19.3	2
0	12809	19.3	1
0	12810	19.3	0
0	12812	19.3	1
0	12813	19.3	2
0	12814	19.3	1
0	12815	19.3	0
0	12857	19.35	1
0	12858	19.35	2
0	12859	19.35	1
0	12860	19.35	0
0	12877	19.4	1
0	12878	19.4	2
0	12879	19.4	1
0	12880	19.4	0
0	12882	19.4	1
0	12883	19.4	2
0	12884	19.4	1
0	12885	19.4	0
0	12927	19.45	1
0	12928	19.45	2
0	12929	19.45	1
0	12930	19.45	0
0	12947	19.5	1
0	12948	19.5	2
0	12949	19.5	1
0	12950	19.5	0
0	12952	19.5	1
0	12953	19.5	2
0	12954	19.5	1
0	12955	19.5	0
0	12978	19.55	1
0	12979	19.55	2
0	12980	19.55	1
0	12981	19.55	0
0	13034	19.6	1
0	13035	19.6	2
0	13036	19.6	1
0	13037	19.6	0
0	13039	19.6	1
0	13040	19.6	2
0	13041	19.6	1
0	13042	19.6	0
0	13065	19.65	1
0	13066	19.65	2
0	13067	19.65	1
0	13068	19.65	0
0	13085	19.7	1
0	13086	19.7	2
0	13087	19.7	1
0	13088	19.7	0
0	13090	19.7	1
0	13091	19.7	2
0	13092	19.7	1
0	13093	19.7	0
0	13135	19.75	1
0	13136	19.75	2
0	13137	19.75	1
0	13138	19.75	0
0	13155	19.8	1
0	13156	19.8	2
0	13157	19.8	1
0	13158	19.8	0
0	13160	19.8	1
0	13161	19.8	2
0	13162	19.8	1
0	13163	19.8	0
0	13186	19.85	1
0	13187	19.85	2
0	13188	19.85	1
0	13189	19.85	0
0	13225	19.9	1
0	13226	19.9	2
0	13227	19.9	1
0	13228	19.9	0
0	13230	19.9	1
0	13231	19.9	2
0	13232	19.9	1
0	13233	19.9	0
0	13256	19.95	1
0	13257	19.95	2
0	13258	19.95	1
0	13259	19.95	0
0	13296	20	1
0	13297	20	2
0	13298	20	1
0	13299	20	0
0	13301	20	1
0	13302	20	2
0	13303	20	1
0	13304	20	0
0	13327	20.05	1
0	13328	20.05	2
0	13329	20.05	1
0	13330	20.05	0
0	13351	20.1	1
0	13352	20.1	2
0	13353	20.1	1
0	13354	20.1	0
0	13356	20.1	1
0	13357	20.1	2
0	13358	20.1	1
0	13359	20.1	0
0	13420	20.15	1
0	13421	20.15	2
0	13422	20.15	1
0	13423	20.15	0
0	13440	20.2	1
0	13441	20.2	2
0	13442	20.2	1
0	13443	20.2	0
0	13445	20.2	1
0	13446	20.2	2
0	13447	20.2	1
0	13448	20.2	0
0	13471	20.25	1
0	13472	20.25	2
0	13473	20.25	1
0	13474	20.25	0
0	13527	20.3	1
0	13528	20.3	2
0	13529	20.3	1
0	13530	20.3	0
0	13532	20.3	1
0	13533	20.3	2
0	13534	20.3	1
0	13535	20.3	0
0	13558	20.35	1
0	13559	20.35	2
0	13560	20.35	1
0	13561	20.35	0
0	13578	20.4	1
0	13579	20.4	2
0	13580	20.4	1
0	13581	20.4	0
0	13583	20.4	1
0	13584	20.4	2
0	13585	20.4	1
0	13586	20.4	0
0	13628	20.45	1
0	13629	20.45	2
0	13630	20.45	1
0	13631	20.45	0
0	13648	20.5	1
0	13649	20.5	2
0	13650	20.5	1
0	13651	20.5	0
0	13653	20.5	1
0	13654	20.5	2
0	13655	20.5	1
0	13656	20.5	0
0	13698	20.55	1
0	13699	20.55	2
0	13700	20.55	1
0	13701	20.55	0
0	13718	20.6	1
0	13719	20.6	2
0	13720	20.6	1
0	13721	20.6	0
0	13723	20.6	1
0	13724	20.6	2
0	13725	20.6	1
0	13726	20.6	0
0	13749	20.65	1
0	13750	20.65	2
0	13751	20.65	1
0	13752	20.65	0
0	13805	20.7	1
0	13806	20.7	2
0	13807	20.7	1
0	13808	20.7	0
0	13810	20.7	1
0	13811	20.7	2
0	13812	20.7	1
0	13813	20.7	0
0	13836	20.75	1
0	13837	20.75	2
0	13838	20.75	1
0	13839	20.75	0
0	13856	20.8	1
0	13857	20.8	2
0	13858	20.8	1
0	13859	20.8	0
0	13861	20.8	1
0	13862	20.8	2
0	13863	20.8	1
0	13864	20.8	0
0	13906	20.85	1
0	13907	20.85	2
0	13908	20.85	1
0	13909	20.85	0
0	13926	20.9	1
0	13927	20.9	2
0	13928	20.9	1
0	13929	20.9	0
0	13931	20.9	1
0	13932	20.9	2
0	13933	20.9	1
0	13934	20.9	0
0	13957	20.95	1
0	13958	20.95	2
0	13959	20.95	1
0	13960	20.95	0
0	13996	21	1
0	13997	21	2
0	13998	21	1
0	13999	21	0
0	14001	21	1
0	14002	21	2
0	14003	21	1
0	14004	21	0
0	14027	21.05	1
0	14028	21.05	2
0	14029	21.05	1
0	14030	21.05	0
0	14056	21.1	1
0	14057	21.1	2
0	14058	21.1	1
0	14059	21.1	0
0	14061	21.1	1
0	14062	21.1	2
0	14063	21.1	1
0	14064	21.1	0
0	14092	21.15	1
0	14093	21.15	2
0	14094	21.15	1
0	14095	21.15	0
0	14112	21.2	1
0	14113	21.2	2
0	14114	21.2	1
0	14115	21.2	0
0	14117	21.2	1
0	14118	21.2	2
0	14119	21.2	1
0	14120	21.2	0
0	14143	21.25	1
0	14144	21.25	2
0	14145	21.25	1
0	14146	21.25	0
0	14163	21.3	1
0	14164	21.3	2
0	14165	21.3	1
0	14166	21.3	0
0	14168	21.3	1
0	14169	21.3	2
0	14170	21.3	1
0	14171	21.3	0
0	14194	21.35	1
0	14195	21.35	2
0	14196	21.35	1
0	14197	21.35	0
0	14250	21.4	1
0	14251	21.4	2
0	14252	21.4	1
0	14253	21.4	0
0	14255	21.4	1
0	14256	21.4	2
0	14257	21.4	1
0	14258	21.4	0
0	14281	21.45	1
0	14282	21.45	2
0	14283	21.45	1
0	14284	21.45	0
0	14301	21.5	1
0	14302	21.5	2
0	14303	21.5	1
0	14304	21.5	0
0	14306	21.5	1
0	14307	21.5	2
0	14308	21.5	1
0	14309	21.5	0
0	14351	21.55	1
0	14352	21.55	2
0	14353	21.55	1
0	14354	21.55	0
0	14371	21.6	1
0	14372	21.6	2
0	14373	21.6	1
0	14374	21.6	0
0	14376	21.6	1
0	14377	21.6	2
0	14378	21.6	1
0	14379	21.6	0
0	14402	21.65	1
0	14403	21.65	2
0	14404	21.65	1
0	14405	21.65	0
0	14422	21.7	1
0	14423	21.7	2
0	14424	21.7	1
0	14425	21.7	0
0	14427	21.7	1
0	14428	21.7	2
0	14429	21.7	1
0	14430	21.7	0
0	14453	21.75	1
0	14454	21.75	2
0	14455	21.75	1
0	14456	21.75	0
0	14473	21.8	1
0	14474	21.8	2
0	14475	21.8	1
0	14476	21.8	0
0	14478	21.8	1
0	14479	21.8	2
0	14480	21.8	1
0	14481	21.8	0
0	14504	21.85	1
0	14505	21.85	2
0	14506	21.85	1
0	14507	21.85	0
0	14524	21.9	1
0	14525	21.9	2
0	14526	21.9	1
0	14527	21.9	0
0	14529	21.9	1
0	14530	21.9	2
0	14531	21.9	1
0	14532	21.9	0
0	14574	21.95	1
0	14575	21.95	2
0	14576	21.95	1
0	14577	21.95	0
0	14597	22	1
0	14598	22	2
0	14599	22	1
0	14600	22	0
0	14602	22	1
0	14603	22	2
0	14604	22	1
0	14605	22	0
0	14628	22.05	1
0	14629	22.05	2
0	14630	22.05	1
0	14631	22.05	0
0	14671	22.1	1
0	14672	22.1	2
0	14673	22.1	1
0	14674	22.1	0
0	14676	22.1	1
0	14677	22.1	2
0	14678	22.1	1
0	14679	22.1	0
0	14706	22.15	1
0	14707	22.15	2
0	14708	22.15	1
0	14709	22.15	0
0	14726	22.2	1
0	14727	22.2	2
0	14728	22.2	1
0	14729	22.2	0
0	14731	22.2	1
0	14732	22.2	2
0	14733	22.2	1
0	14734	22.2	0
0	14757	22.25	1
0	14758	22.25	2
0	14759	22.25	1
0	14760	22.25	0
0	14782	22.3	1
0	14783	22.3	2
0	14784	22.3	1
0	14785	22.3	0
0	14787	22.3	1
0	14788	22.3	2
0	14789	22.3	1
0	14790	22.3	0
0	14813	22.35	1
0	14814	22.35	2
0	14815	22.35	1
0	14816	22.35	0
0	14833	22.4	1
0	14834	22.4	2
0	14835	22.4	1
0	14836	22.4	0
0	14838	22.4	1
0	14839	22.4	2
0	14840	22.4	1
0	14841	22.4	0
0	14864	22.45	1
0	14865	22.45	2
0	14866	22.45	1
0	14867	22.45	0
0	14908	22.5	1
0	14909	22.5	2
0	14910	22.5	1
0	14911	22.5	0
0	14913	22.5	1
0	14914	22.5	2
0	14915	22.5	1
0	14916	22.5	0
0	14939	22.55	1
0	14940	22.55	2
0	14941	22.55	1
0	14942	22.55	0
0	14959	22.6	1
0	14960	22.6	2
0	14961	22.6	1
0	14962	22.6	0
0	14964	22.6	1
0	14965	22.6	2
0	14966	22.6	1
0	14967	22.6	0
0	15005	22.65	1
0	15006	22.65	2
0	15007	22.65	1
0	15008	22.65	0
0	15044	22.7	1
0	15045	22.7	2
0	15046	22.7	1
0	15047	22.7	0
0	15049	22.7	1
0	15050	22.7	2
0	15051	22.7	1
0	15052	22.7	0
0	15075	22.75	1
0	15076	22.75	2
0	15077	22.75	1
0	15078	22.75	0
0	15095	22.8	1
0	15096	22.8	2
0	15097	22.8	1
0	15098	22.8	0
0	15100	22.8	1
0	15101	22.8	2
0	15102	22.8	1
0	15103	22.8	0
0	15171	22.85	1
0	15172	22.85	2
0	15173	22.85	1
0	15174	22.85	0
0	15197	22.9	1
0	15198	22.9	2
0	15199	22.9	1
0	15200	22.9	0
0	15202	22.9	1
0	15203	22.9	2
0	15204	22.9	1
0	15205	22.9	0
0	15228	22.95	1
0	15229	22.95	2
0	15230	22.95	1
0	15231	22.95	0
0	15248	23	1
0	15249	23	2
0	15250	23	1
0	15251	23	0
0	15253	23	1
0	15254	23	2
0	15255	23	1
0	15256	23	0
0	15314	23.05	1
0	15315	23.05	2
0	15316	23.05	1
0	15317	23.05	0
0	15338	23.1	1
0	15339	23.1	2
0	15340	23.1	1
0	15341	23.1	0
0	15343	23.1	1
0	15344	23.1	2
0	15345	23.1	1
0	15346	23.1	0
0	15373	23.15	1
0	15374	23.15	2
0	15375	23.15	1
0	15376	23.15	0
0	15412	23.2	1
0	15413	23.2	2
0	15414	23.2	1
0	15415	23.2	0
0	15417	23.2	1
0	15418	23.2	2
0	15419	23.2	1
0	15420	23.2	0
0	15462	23.25	1
0	15463	23.25	2
0	15464	23.25	1
0	15465	23.25	0
0	15482	23.3	1
0	15483	23.3	2
0	15484	23.3	1
0	15485	23.3	0
0	15487	23.3	1
0	15488	23.3	2
0	15489	23.3	1
0	15490	23.3	0
0	15513	23.35	1
0	15514	23.35	2
0	15515	23.35	1
0	15516	23.35	0
0	15568	23.4	1
0	15569	23.4	2
0	15570	23.4	1
0	15571	23.4	0
0	15573	23.4	1
0	15574	23.4	2
0	15575	23.4	1
0	15576	23.4	0
0	15599	23.45	1
0	15600	23.45	2
0	15601	23.45	1
0	15602	23.45	0
0	15619	23.5	1
0	15620	23.5	2
0	15621	23.5	1
0	15622	23.5	0
0	15624	23.5	1
0	15625	23.5	2
0	15626	23.5	1
0	15627	23.5	0
0	15650	23.55	1
0	15651	23.55	2
0	15652	23.55	1
0	15653	23.55	0
0	15705	23.6	1
0	15706	23.6	2
0	15707	23.6	1
0	15708	23.6	0
0	15710	23.6	1
0	15711	23.6	2
0	15712	23.6	1
0	15713	23.6	0
0	15736	23.65	1
0	15737	23.65	2
0	15738	23.65	1
0	15739	23.65	0
0	15756	23.7	1
0	15757	23.7	2
0	15758	23.7	1
0	15759	23.7	0
0	15761	23.7	1
0	15762	23.7	2
0	15763	23.7	1
0	15764	23.7	0
0	15806	23.75	1
0	15807	23.75	2
0	15808	23.75	1
0	15809	23.75	0
0	15845	23.8	1
0	15846	23.8	2
0	15847	23.8	1
0	15848	23.8	0
0	15850	23.8	1
0	15851	23.8	2
0	15852	23.8	1
0	15853	23.8	0
0	15876	23.85	1
0	15877	23.85	2
0	15878	23.85	1
0	15879	23.85	0
0	15896	23.9	1
0	15897	23.9	2
0	15898	23.9	1
0	15899	23.9	0
0	15901	23.9	1
0	15902	23.9	2
0	15903	23.9	1
0	15904	23.9	0
0	15946	23.95	1
0	15947	23.95	2
0	15948	23.95	1
0	15949	23.95	0
0	15966	24	1
0	15967	24	2
0	15968	24	1
0	15969	24	0
0	15971	24	1
0	15972	24	2
0	15973	24	1
0	15974	24	0
0	15997	24.05	1
0	15998	24.05	2
0	15999	24.05	1
0	16000	24.05	0
0	16021	24.1	1
0	16022	24.1	2
0	16023	24.1	1
0	16024	24.1	0
0	16026	24.1	1
0	16027	24.1	2
0	16028	24.1	1
0	16029	24.1	0
0	16091	24.15	1
0	16092	24.15	2
0	16093	24.15	1
0	16094	24.15	0
0	16111	24.2	1
0	16112	24.2	2
0	16113	24.2	1
0	16114	24.2	0
0	16116	24.2	1
0	16117	24.2	2
0	16118	24.2	1
0	16119	24.2	0
0	16142	24.25	1
0	16143	24.25	2
0	16144	24.25	1
0	16145	24.25	0
0	16181	24.3	1
0	16182	24.3	2
0	16183	24.3	1
0	16184	24.3	0
0	16186	24.3	1
0	16187	24.3	2
0	16188	24.3	1
0	16189	24.3	0
0	16231	24.35	1
0	16232	24.35	2
0	16233	24.35	1
0	16234	24.35	0
0	16251	24.4	1
0	16252	24.4	2
0	16253	24.4	1
0	16254	24.4	0
0	16256	24.4	1
0	16257	24.4	2
0	16258	24.4	1
0	16259	24.4	0
0	16282	24.45	1
0	16283	24.45	2
0	16284	24.45	1
0	16285	24.45	0
0	16337	24.5	1
0	16338	24.5	2
0	16339	24.5	1
0	16340	24.5	0
0	16342	24.5	1
0	16343	24.5	2
0	16344	24.5	1
0	16345	24.5	0
0	16368	24.55	1
0	16369	24.55	2
0	16370	24.55	1
0	16371	24.55	0
0	16388	24.6	1
0	16389	24.6	2
0	16390	24.6	1
0	16391	24.6	0
0	16393	24.6	1
0	16394	24.6	2
0	16395	24.6	1
0	16396	24.6	0
0	16419	24.65	1
0	16420	24.65	2
0	16421	24.65	1
0	16422	24.65	0
0	16458	24.7	1
0	16459	24.7	2
0	16460	24.7	1
0	16461	24.7	0
0	16463	24.7	1
0	16464	24.7	2
0	16465	24.7	1
0	16466	24.7	0
0	16489	24.75	1
0	16490	24.75	2
0	16491	24.75	1
0	16492	24.75	0
0	16509	24.8	1
0	16510	24.8	2
0	16511	24.8	1
0	16512	24.8	0
0	16514	24.8	1
0	16515	24.8	2
0	16516	24.8	1
0	16517	24.8	0
0	16545	24.85	1
0	16546	24.85	2
0	16547	24.85	1
0	16548	24.85	0
0	16584	24.9	1
0	16585	24.9	2
0	16586	24.9	1
0	16587	24.9	0
0	16589	24.9	1
0	16590	24.9	2
0	16591	24.9	1
0	16592	24.9	0
0	16615	24.95	1
0	16616	24.95	2
0	16617	24.95	1
0	16618	24.95	0
0	16636	25	1
0	16637	25	2
0	16638	25	1
0	16639	25	0
0	16641	25	1
0	16642	25	2
0	16643	25	1
0	16644	25	0
0	16686	25.05	1
0	16687	25.05	2
0	16688	25.05	1
0	16689	25.05	0
0	16710	25.1	1
0	16711	25.1	2
0	16712	25.1	1
0	16713	25.1	0
0	16715	25.1	1
0	16716	25.1	2
0	16717	25.1	1
0	16718	25.1	0
0	16746	25.15	1
0	16747	25.15	2
0	16748	25.15	1
0	16749	25.15	0
0	16766	25.2	1
0	16767	25.2	2
0	16768	25.2	1
0	16769	25.2	0
0	16771	25.2	1
0	16772	25.2	2
0	16773	25.2	1
0	16774	25.2	0
0	16797	25.25	1
0	16798	25.25	2
0	16799	25.25	1
0	16800	25.25	0
0	16817	25.3	1
0	16818	25.3	2
0	16819	25.3	1
0	16820	25.3	0
0	16822	25.3	1
0	16823	25.3	2
0	16824	25.3	1
0	16825	25.3	0
0	16848	25.35	1
0	16849	25.35	2
0	16850	25.35	1
0	16851	25.35	0
0	16868	25.4	1
0	16869	25.4	2
0	16870	25.4	1
0	16871	25.4	0
0	16873	25.4	1
0	16874	25.4	2
0	16875	25.4	1
0	16876	25.4	0
0	16918	25.45	1
0	16919	25.45	2
0	16920	25.45	1
0	16921	25.45	0
0	16938	25.5	1
0	16939	25.5	2
0	16940	25.5	1
0	16941	25.5	0
0	16943	25.5	1
0	16944	25.5	2
0	16945	25.5	1
0	16946	25.5	0
0	16969	25.55	1
0	16970	25.55	2
0	16971	25.55	1
0	16972	25.55	0
0	17024	25.6	1
0	17025	25.6	2
0	17026	25.6	1
0	17027	25.6	0
0	17029	25.6	1
0	17030	25.6	2
0	17031	25.6	1
0	17032	25.6	0
0	17055	25.65	1
0	17056	25.65	2
0	17057	25.65	1
0	17058	25.65	0
0	17075	25.7	1
0	17076	25.7	2
0	17077	25.7	1
0	17078	25.7	0
0	17080	25.7	1
0	17081	25.7	2
0	17082	25.7	1
0	17083	25.7	0
0	17106	25.75	1
0	17107	25.75	2
0	17108	25.75	1
0	17109	25.75	0
0	17126	25.8	1
0	17127	25.8	2
0	17128	25.8	1
0	17129	25.8	0
0	17131	25.8	1
0	17132	25.8	2
0	17133	25.8	1
0	17134	25.8	0
0	17157	25.85	1
0	17158	25.85	2
0	17159	25.85	1
0	17160	25.85	0
0	17177	25.9	1
0	17178	25.9	2
0	17179	25.9	1
0	17180	25.9	0
0	17182	25.9	1
0	17183	25.9	2
0	17184	25.9	1
0	17185	25.9	0
0	17208	25.95	1
0	17209	25.95	2
0	17210	25.95	1
0	17211	25.95	0
0	17247	26	1
0	17248	26	2
0	17249	26	1
0	17250	26	0
0	17252	26	1
0	17253	26	2
0	17254	26	1
0	17255	26	0
0	17278	26.05	1
0	17279	26.05	2
0	17280	26.05	1
0	17281	26.05	0
0	17302	26.1	1
0	17303	26.1	2
0	17304	26.1	1
0	17305	26.1	0
0	17307	26.1	1
0	17308	26.1	2
0	17309	26.1	1
0	17310	26.1	0
0	17373	26.15	1
0	17374	26.15	2
0	17375	26.15	1
0	17376	26.15	0
0	17393	26.2	1
0	17394	26.2	2
0	17395	26.2	1
0	17396	26.2	0
0	17398	26.2	1
0	17399	26.2	2
0	17400	26.2	1
0	17401	26.2	0
0	17424	26.25	1
0	17425	26.25	2
0	17426	26.25	1
0	17427	26.25	0
0	17459	26.3	1
0	17460	26.3	2
0	17461	26.3	1
0	17462	26.3	0
0	17464	26.3	1
0	17465	26.3	2
0	17466	26.3	1
0	17467	26.3	0
0	17490	26.35	1
0	17491	26.35	2
0	17492	26.35	1
0	17493	26.35	0
0	17510	26.4	1
0	17511	26.4	2
0	17512	26.4	1
0	17513	26.4	0
0	17515	26.4	1
0	17516	26.4	2
0	17517	26.4	1
0	17518	26.4	0
0	17560	26.45	1
0	17561	26.45	2
0	17562	26.45	1
0	17563	26.45	0
0	17580	26.5	1
0	17581	26.5	2
0	17582	26.5	1
0	17583	26.5	0
0	17585	26.5	1
0	17586	26.5	2
0	17587	26.5	1
0	17588	26.5	0
0	17630	26.55	1
0	17631	26.55	2
0	17632	26.55	1
0	17633	26.55	0
0	17650	26.6	1
0	17651	26.6	2
0	17652	26.6	1
0	17653	26.6	0
0	17655	26.6	1
0	17656	26.6	2
0	17657	26.6	1
0	17658	26.6	0
0	17681	26.65	1
0	17682	26.65	2
0	17683	26.65	1
0	17684	26.65	0
0	17716	26.7	1
0	17717	26.7	2
0	17718	26.7	1
0	17719	26.7	0
0	17721	26.7	1
0	17722	26.7	2
0	17723	26.7	1
0	17724	26.7	0
0	17747	26.75	1
0	17748	26.75	2
0	17749	26.75	1
0	17750	26.75	0
0	17767	26.8	1
0	17768	26.8	2
0	17769	26.8	1
0	17770	26.8	0
0	17772	26.8	1
0	17773	26.8	2
0	17774	26.8	1
0	17775	26.8	0
0	17843	26.85	1
0	17844	26.85	2
0	17845	26.85	1
0	17846	26.85	0
0	17866	26.9	1
0	17867	26.9	2
0	17868	26.9	1
0	17869	26.9	0
0	17871	26.9	1
0	17872	26.9	2
0	17873	26.9	1
0	17874	26.9	0
0	17897	26.95	1
0	17898	26.95	2
0	17899	26.95	1
0	17900	26.95	0
0	17939	27	1
0	17940	27	2
0	17941	27	1
0	17942	27	0
0	17944	27	1
0	17945	27	2
0	17946	27	1
0	17947	27	0
0	17970	27.05	1
0	17971	27.05	2
0	17972	27.05	1
0	17973	27.05	0
0	18013	27.1	1
0	18014	27.1	2
0	18015	27.1	1
0	18016	27.1	0
0	18018	27.1	1
0	18019	27.1	2
0	18020	27.1	1
0	18021	27.1	0
0	18050	27.15	1
0	18051	27.15	2
0	18052	27.15	1
0	18053	27.15	0
0	18070	27.2	1
0	18071	27.2	2
0	18072	27.2	1
0	18073	27.2	0
0	18075	27.2	1
0	18076	27.2	2
0	18077	27.2	1
0	18078	27.2	0
0	18137	27.25	1
0	18138	27.25	2
0	18139	27.25	1
0	18140	27.25	0
0	18157	27.3	1
0	18158	27.3	2
0	18159	27.3	1
0	18160	27.3	0
0	18162	27.3	1
0	18163	27.3	2
0	18164	27.3	1
0	18165	27.3	0
0	18188	27.35	1
0	18189	27.35	2
0	18190	27.35	1
0	18191	27.35	0
0	18255	27.4	1
0	18256	27.4	2
0	18257	27.4	1
0	18258	27.4	0
0	18260	27.4	1
0	18261	27.4	2
0	18262	27.4	1
0	18263	27.4	0
0	18292	27.45	1
0	18293	27.45	2
0	18294	27.45	1
0	18295	27.45	0
0	18312	27.5	1
0	18313	27.5	2
0	18314	27.5	1
0	18315	27.5	0
0	18317	27.5	1
0	18318	27.5	2
0	18319	27.5	1
0	18320	27.5	0
0	18362	27.55	1
0	18363	27.55	2
0	18364	27.55	1
0	18365	27.55	0
0	18382	27.6	1
0	18383	27.6	2
0	18384	27.6	2
0	18385	27.6	1
0	18387	27.6	1
0	18388	27.6	2
0	18389	27.6	2
0	18390	27.6	1
0	18430	27.65	1
0	18431	27.65	2
0	18432	27.65	2
0	18433	27.65	1
0	18450	27.7	1
0	18451	27.7	2
0	18452	27.7	2
0	18453	27.7	1
0	18455	27.7	1
0	18456	27.7	2
0	18457	27.7	2
0	18458	27.7	1
0	18483	27.75	1
0	18484	27.75	2
0	18485	27.75	2
0	18486	27.75	1
0	18508	27.8	1
0	18509	27.8	2
0	18510	27.8	2
0	18511	27.8	1
0	18513	27.8	1
0	18514	27.8	2
0	18515	27.8	2
0	18516	27.8	1
0	18541	27.85	1
0	18542	27.85	2
0	18543	27.85	2
0	18544	27.85	1
0	18561	27.9	1
0	18562	27.9	2
0	18563	27.9	2
0	18564	27.9	1
0	18566	27.9	1
0	18567	27.9	2
0	18568	27.9	2
0	18569	27.9	1
0	18613	27.95	1
0	18614	27.95	2
0	18615	27.95	2
0	18616	27.95	1
0	18633	28	1
0	18634	28	2
0	18635	28	2
0	18636	28	1
0	18638	28	1
0	18639	28	2
0	18640	28	2
0	18641	28	1
0	18666	28.05	1
0	18667	28.05	2
0	18668	28.05	2
0	18669	28.05	1
0	18709	28.1	1
0	18710	28.1	2
0	18711	28.1	2
0	18712	28.1	1
0	18714	28.1	1
0	18715	28.1	2
0	18716	28.1	2
0	18717	28.1	1
0	18748	28.15	1
0	18749	28.15	2
0	18750	28.15	2
0	18751	28.15	1
0	18768	28.2	1
0	18769	28.2	2
0	18770	28.2	2
0	18771	28.2	1
0	18773	28.2	1
0	18774	28.2	2
0	18775	28.2	2
0	18776	28.2	1
0	18801	28.25	1
0	18802	28.25	2
0	18803	28.25	2
0	18804	28.25	1
0	18821	28.3	1
0	18822	28.3	2
0	18823	28.3	2
0	18824	28.3	1
0	18826	28.3	1
0	18827	28.3	2
0	18828	28.3	2
0	18829	28.3	1
0	18854	28.35	1
0	18855	28.35	2
0	18856	28.35	2
0	18857	28.35	1
0	18874	28.4	1
0	18875	28.4	2
0	18876	28.4	2
0	18877	28.4	1
0	18879	28.4	1
0	18880	28.4	2
0	18881	28.4	2
0	18882	28.4	1
0	18907	28.45	1
0	18908	28.45	2
0	18909	28.45	2
0	18910	28.45	1
0	18963	28.5	1
0	18964	28.5	2
0	18965	28.5	2
0	18966	28.5	1
0	18968	28.5	1
0	18969	28.5	2
0	18970	28.5	2
0	18971	28.5	1
0	18996	28.55	1
0	18997	28.55	2
0	18998	28.55	2
0	18999	28.55	1
0	19016	28.6	1
0	19017	28.6	2
0	19018	28.6	2
0	19019	28.6	1
0	19021	28.6	1
0	19022	28.6	2
0	19023	28.6	2
0	19024	28.6	1
0	19068	28.65	1
0	19069	28.65	2
0	19070	28.65	2
0	19071	28.65	1
0	19098	28.7	1
0	19099	28.7	2
0	19100	28.7	2
0	19101	28.7	1
0	19103	28.7	1
0	19104	28.7	2
0	19105	28.7	2
0	19106	28.7	1
0	19131	28.75	1
0	19132	28.75	2
0	19133	28.75	2
0	19134	28.75	1
0	19151	28.8	1
0	19152	28.8	2
0	19153	28.8	2
0	19154	28.8	1
0	19156	28.8	1
0	19157	28.8	2
0	19158	28.8	2
0	19159	28.8	1
0	19184	28.85	1
0	19185	28.85	2
0	19186	28.85	2
0	19187	28.85	1
0	19204	28.9	1
0	19205	28.9	2
0	19206	28.9	2
0	19207	28.9	1
0	19209	28.9	1
0	19210	28.9	2
0	19211	28.9	2
0	19212	28.9	1
0	19237	28.95	1
0	19238	28.95	2
0	19239	28.95	2
0	19240	28.95	1
0	19257	29	1
0	19258	29	2
0	19259	29	2
0	19260	29	1
0	19262	29	1
0	19263	29	2
0	19264	29	2
0	19265	29	1
0	19309	29.05	1
0	19310	29.05	2
0	19311	29.05	2
0	19312	29.05	1
0	19333	29.1	1
0	19334	29.1	2
0	19335	29.1	2
0	19336	29.1	1
0	19338	29.1	1
0	19339	29.1	2
0	19340	29.1	2
0	19341	29.1	1
0	19372	29.15	1
0	19373	29.15	2
0	19374	29.15	2
0	19375	29.15	1
0	19397	29.2	1
0	19398	29.2	2
0	19399	29.2	2
0	19400	29.2	1
0	19402	29.2	1
0	19403	29.2	2
0	19404	29.2	2
0	19405	29.2	1
0	19449	29.25	1
0	19450	29.25	2
0	19451	29.25	2
0	19452	29.25	1
0	19469	29.3	1
0	19470	29.3	2
0	19471	29.3	2
0	19472	29.3	1
0	19474	29.3	1
0	19475	29.3	2
0	19476	29.3	2
0	19477	29.3	1
0	19502	29.35	1
0	19503	29.35	2
0	19504	29.35	2
0	19505	29.35	1
0	19569	29.4	1
0	19570	29.4	2
0	19571	29.4	2
0	19572	29.4	1
0	19574	29.4	1
0	19575	29.4	2
0	19576	29.4	2
0	19577	29.4	1
0	19608	29.45	1
0	19609	29.45	2
0	19610	29.45	2
0	19611	29.45	1
0	19628	29.5	1
0	19629	29.5	2
0	19630	29.5	2
0	19631	29.5	1
0	19633	29.5	1
0	19634	29.5	2
0	19635	29.5	2
0	19636	29.5	1
0	19661	29.55	1
0	19662	29.55	2
0	19663	29.55	2
0	19664	29.55	1
0	19681	29.6	1
0	19682	29.6	2
0	19683	29.6	2
0	19684	29.6	1
0	19686	29.6	1
0	19687	29.6	2
0	19688	29.6	2
0	19689	29.6	1
0	19714	29.65	1
0	19715	29.65	2
0	19716	29.65	2
0	19717	29.65	1
0	19734	29.7	1
0	19735	29.7	2
0	19736	29.7	2
0	19737	29.7	1
0	19739	29.7	1
0	19740	29.7	2
0	19741	29.7	2
0	19742	29.7	1
0	19767	29.75	1
0	19768	29.75	2
0	19769	29.75	2
0	19770	29.75	1
0	19806	29.8	1
0	19807	29.8	2
0	19808	29.8	2
0	19809	29.8	1
0	19811	29.8	1
0	19812	29.8	2
0	19813	29.8	2
0	19814	29.8	1
0	19839	29.85	1
0	19840	29.85	2
0	19841	29.85	2
0	19842	29.85	1
0	19859	29.9	1
0	19860	29.9	2
0	19861	29.9	2
0	19862	29.9	1
0	19864	29.9	1
0	19865	29.9	2
0	19866	29.9	2
0	19867	29.9	1
0	19911	29.95	1
0	19912	29.95	2
0	19913	29.95	2
0	19914	29.95	1
0	19932	30	1
0	19933	30	2
0	19934	30	2
0	19935	30	1
0	19937	30	1
0	19938	30	2
0	19939	30	2
0	19940	30	1
0	19965	30.05	1
0	19966	30.05	2
0	19967	30.05	2
0	19968	30.05	1
0	19989	30.1	1
0	19990	30.1	2
0	19991	30.1	2
0	19992	30.1	1
0	19994	30.1	1
0	19995	30.1	2
0	19996	30.1	2
0	19997	30.1	1
0	20028	30.15	1
0	20029	30.15	2
0	20030	30.15	2
0	20031	30.15	1
0	20048	30.2	1
0	20049	30.2	2
0	20050	30.2	2
0	20051	30.2	1
0	20053	30.2	1
0	20054	30.2	2
0	20055	30.2	2
0	20056	30.2	1
0	20081	30.25	1
0	20082	30.25	2
0	20083	30.25	2
0	20084	30.25	1
0	20111	30.3	1
0	20112	30.3	2
0	20113	30.3	2
0	20114	30.3	1
0	20116	30.3	1
0	20117	30.3	2
0	20118	30.3	2
0	20119	30.3	1
0	20163	30.35	1
0	20164	30.35	2
0	20165	30.35	2
0	20166	30.35	1
0	20183	30.4	1
0	20184	30.4	2
0	20185	30.4	2
0	20186	30.4	1
0	20188	30.4	1
0	20189	30.4	2
0	20190	30.4	2
0	20191	30.4	1
0	20216	30.45	1
0	20217	30.45	2
0	20218	30.45	2
0	20219	30.45	1
0	20269	30.5	1
0	20270	30.5	2
0	20271	30.5	2
0	20272	30.5	1
0	20274	30.5	1
0	20275	30.5	2
0	20276	30.5	2
0	20277	30.5	1
0	20302	30.55	1
0	20303	30.55	2
0	20304	30.55	2
0	20305	30.55	1
0	20322	30.6	1
0	20323	30.6	2
0	20324	30.6	2
0	20325	30.6	1
0	20327	30.6	1
0	20328	30.6	2
0	20329	30.6	2
0	20330	30.6	1
0	20399	30.65	1
0	20400	30.65	2
0	20401	30.65	2
0	20402	30.65	1
0	20425	30.7	1
0	20426	30.7	2
0	20427	30.7	2
0	20428	30.7	1
0	20430	30.7	1
0	20431	30.7	2
0	20432	30.7	2
0	20433	30.7	1
0	20458	30.75	1
0	20459	30.75	2
0	20460	30.75	2
0	20461	30.75	1
0	20497	30.8	1
0	20498	30.8	2
0	20499	30.8	2
0	20500	30.8	1
0	20502	30.8	1
0	20503	30.8	2
0	20504	30.8	2
0	20505	30.8	1
0	20530	30.85	1
0	20531	30.85	2
0	20532	30.85	2
0	20533	30.85	1
0	20569	30.9	1
0	20570	30.9	2
0	20571	30.9	2
0	20572	30.9	1
0	20574	30.9	1
0	20575	30.9	2
0	20576	30.9	2
0	20577	30.9	1
0	20602	30.95	1
0	20603	30.95	2
0	20604	30.95	2
0	20605	30.95	1
0	20622	31	1
0	20623	31	2
0	20624	31	2
0	20625	31	1
0	20627	31	1
0	20628	31	2
0	20629	31	2
0	20630	31	1
0	20691	31.05	1
0	20692	31.05	2
0	20693	31.05	2
0	20694	31.05	1
0	20715	31.1	1
0	20716	31.1	2
0	20717	31.1	2
0	20718	31.1	1
0	20720	31.1	1
0	20721	31.1	2
0	20722	31.1	2
0	20723	31.1	1
0	20754	31.15	1
0	20755	31.15	2
0	20756	31.15	2
0	20757	31.15	1
0	20815	31.2	1
0	20816	31.2	2
0	20817	31.2	2
0	20818	31.2	1
0	20820	31.2	1
0	20821	31.2	2
0	20822	31.2	2
0	20823	31.2	1
0	20848	31.25	1
0	20849	31.25	2
0	20850	31.25	2
0	20851	31.25	1
0	20868	31.3	1
0	20869	31.3	2
0	20870	31.3	2
0	20871	31.3	1
0	20873	31.3	1
0	20874	31.3	2
0	20875	31.3	2
0	20876	31.3	1
0	20916	31.35	1
0	20917	31.35	2
0	20918	31.35	2
0	20919	31.35	1
0	20936	31.4	1
0	20937	31.4	2
0	20938	31.4	2
0	20939	31.4	1
0	20941	31.4	1
0	20942	31.4	2
0	20943	31.4	2
0	20944	31.4	1
0	20988	31.45	1
0	20989	31.45	2
0	20990	31.45	2
0	20991	31.45	1
0	21008	31.5	1
0	21009	31.5	2
0	21010	31.5	2
0	21011	31.5	1
0	21013	31.5	1
0	21014	31.5	2
0	21015	31.5	2
0	21016	31.5	1
0	21041	31.55	1
0	21042	31.55	2
0	21043	31.55	2
0	21044	31.55	1
0	21097	31.6	1
0	21098	31.6	2
0	21099	31.6	2
0	21100	31.6	1
0	21102	31.6	1
0	21103	31.6	2
0	21104	31.6	2
0	21105	31.6	1
0	21130	31.65	1
0	21131	31.65	2
0	21132	31.65	2
0	21133	31.65	1
0	21150	31.7	1
0	21151	31.7	2
0	21152	31.7	2
0	21153	31.7	1
0	21155	31.7	1
0	21156	31.7	2
0	21157	31.7	2
0	21158	31.7	1
0	21219	31.75	1
0	21220	31.75	2
0	21221	31.75	2
0	21222	31.75	1
0	21239	31.8	1
0	21240	31.8	2
0	21241	31.8	2
0	21242	31.8	1
0	21244	31.8	1
0	21245	31.8	2
0	21246	31.8	2
0	21247	31.8	1
0	21272	31.85	1
0	21273	31.85	2
0	21274	31.85	2
0	21275	31.85	1
0	21331	31.9	1
0	21332	31.9	2
0	21333	31.9	2
0	21334	31.9	1
0	21336	31.9	1
0	21337	31.9	2
0	21338	31.9	2
0	21339	31.9	1
0	21364	31.95	1
0	21365	31.95	2
0	21366	31.95	2
0	21367	31.95	1
0	21406	32	1
0	21407	32	2
0	21408	32	2
0	21409	32	1
0	21411	32	1
0	21412	32	2
0	21413	32	2
0	21414	32	1
0	21439	32.05	1
0	21440	32.05	2
0	21441	32.05	2
0	21442	32.05	1
0	21463	32.1	1
0	21464	32.1	2
0	21465	32.1	2
0	21466	32.1	1
0	21468	32.1	1
0	21469	32.1	2
0	21470	32.1	2
0	21471	32.1	1
0	21538	32.15	1
0	21539	32.15	2
0	21540	32.15	2
0	21541	32.15	1
0	21558	32.2	1
0	21559	32.2	2
0	21560	32.2	2
0	21561	32.2	1
0	21563	32.2	1
0	21564	32.2	2
0	21565	32.2	2
0	21566	32.2	1
0	21591	32.25	1
0	21592	32.25	2
0	21593	32.25	2
0	21594	32.25	1
0	21626	32.3	1
0	21627	32.3	2
0	21628	32.3	2
0	21629	32.3	1
0	21631	32.3	1
0	21632	32.3	2
0	21633	32.3	2
0	21634	32.3	1
0	21659	32.35	1
0	21660	32.35	2
0	21661	32.35	2
0	21662	32.35	1
0	21684	32.4	1
0	21685	32.4	2
0	21686	32.4	2
0	21687	32.4	1
0	21689	32.4	1
0	21690	32.4	2
0	21691	32.4	2
0	21692	32.4	1
0	21736	32.45	1
0	21737	32.45	2
0	21738	32.45	2
0	21739	32.45	1
0	21756	32.5	1
0	21757	32.5	2
0	21758	32.5	2
0	21759	32.5	1
0	21761	32.5	1
0	21762	32.5	2
0	21763	32.5	2
0	21764	32.5	1
0	21808	32.55	1
0	21809	32.55	2
0	21810	32.55	2
0	21811	32.55	1
0	21828	32.6	1
0	21829	32.6	2
0	21830	32.6	2
0	21831	32.6	1
0	21833	32.6	1
0	21834	32.6	2
0	21835	32.6	2
0	21836	32.6	1
0	21861	32.65	1
0	21862	32.65	2
0	21863	32.65	2
0	21864	32.65	1
0	21900	32.7	1
0	21901	32.7	2
0	21902	32.7	2
0	21903	32.7	1
0	21905	32.7	1
0	21906	32.7	2
0	21907	32.7	2
0	21908	32.7	1
0	21933	32.75	1
0	21934	32.75	2
0	21935	32.75	2
0	21936	32.75	1
0	21953	32.8	1
0	21954	32.8	2
0	21955	32.8	2
0	21956	32.8	1
0	21958	32.8	1
0	21959	32.8	2
0	21960	32.8	2
0	21961	32.8	1
0	22010	32.85	1
0	22011	32.85	2
0	22012	32.85	2
0	22013	32.85	1
0	22030	32.9	1
0	22031	32.9	2
0	22032	32.9	2
0	22033	32.9	1
0	22035	32.9	1
0	22036	32.9	2
0	22037	32.9	2
0	22038	32.9	1
0	22063	32.95	1
0	22064	32.95	2
0	22065	32.95	2
0	22066	32.95	1
0	22102	33	1
0	22103	33	2
0	22104	33	2
0	22105	33	1
0	22107	33	1
0	22108	33	2
0	22109	33	2
0	22110	33	1
0	22135	33.05	1
0	22136	33.05	2
0	22137	33.05	2
0	22138	33.05	1
0	22178	33.1	1
0	22179	33.1	2
0	22180	33.1	2
0	22181	33.1	1
0	22183	33.1	1
0	22184	33.1	2
0	22185	33.1	2
0	22186	33.1	1
0	22217	33.15	1
0	22218	33.15	2
0	22219	33.15	2
0	22220	33.15	1
0	22237	33.2	1
0	22238	33.2	2
0	22239	33.2	2
0	22240	33.2	1
0	22242	33.2	1
0	22243	33.2	2
0	22244	33.2	2
0	22245	33.2	1
0	22306	33.25	1
0	22307	33.25	2
0	22308	33.25	2
0	22309	33.25	1
0	22326	33.3	1
0	22327	33.3	2
0	22328	33.3	2
0	22329	33.3	1
0	22331	33.3	1
0	22332	33.3	2
0	22333	33.3	2
0	22334	33.3	1
0	22359	33.35	1
0	22360	33.35	2
0	22361	33.35	2
0	22362	33.35	1
0	22384	33.4	1
0	22385	33.4	2
0	22386	33.4	2
0	22387	33.4	1
0	22389	33.4	1
0	22390	33.4	2
0	22391	33.4	2
0	22392	33.4	1
0	22422	33.45	1
0	22423	33.45	2
0	22424	33.45	2
0	22425	33.45	1
0	22442	33.5	1
0	22443	33.5	2
0	22444	33.5	2
0	22445	33.5	1
0	22447	33.5	1
0	22448	33.5	2
0	22449	33.5	2
0	22450	33.5	1
0	22475	33.55	1
0	22476	33.55	2
0	22477	33.55	2
0	22478	33.55	1
0	22495	33.6	1
0	22496	33.6	2
0	22497	33.6	2
0	22498	33.6	1
0	22500	33.6	1
0	22501	33.6	2
0	22502	33.6	2
0	22503	33.6	1
0	22547	33.65	1
0	22548	33.65	2
0	22549	33.65	2
0	22550	33.65	1
0	22567	33.7	1
0	22568	33.7	2
0	22569	33.7	2
0	22570	33.7	1
0	22572	33.7	1
0	22573	33.7	2
0	22574	33.7	2
0	22575	33.7	1
0	22600	33.75	1
0	22601	33.75	2
0	22602	33.75	2
0	22603	33.75	1
0	22639	33.8	1
0	22640	33.8	2
0	22641	33.8	2
0	22642	33.8	1
0	22644	33.8	1
0	22645	33.8	2
0	22646	33.8	2
0	22647	33.8	1
0	22672	33.85	1
0	22673	33.85	2
0	22674	33.85	2
0	22675	33.85	1
0	22692	33.9	1
0	22693	33.9	2
0	22694	33.9	2
0	22695	33.9	1
0	22697	33.9	1
0	22698	33.9	2
0	22699	33.9	2
0	22700	33.9	1
0	22725	33.95	1
0	22726	33.95	2
0	22727	33.95	2
0	22728	33.95	1
0	22750	34	1
0	22751	34	2
0	22752	34	2
0	22753	34	1
0	22755	34	1
0	22756	34	2
0	22757	34	2
0	22758	34	1
0	22783	34.05	1
0	22784	34.05	2
0	22785	34.05	2
0	22786	34.05	1
0	22807	34.1	1
0	22808	34.1	2
0	22809	34.1	2
0	22810	34.1	1
0	22812	34.1	1
0	22813	34.1	2
0	22814	34.1	2
0	22815	34.1	1
0	22846	34.15	1
0	22847	34.15	2
0	22848	34.15	2
0	22849	34.15	1
0	22885	34.2	1
0	22886	34.2	2
0	22887	34.2	2
0	22888	34.2	1
0	22890	34.2	1
0	22891	34.2	2
0	22892	34.2	2
0	22893	34.2	1
0	22918	34.25	1
0	22919	34.25	2
0	22920	34.25	2
0	22921	34.25	1
0	22938	34.3	1
0	22939	34.3	2
0	22940	34.3	2
0	22941	34.3	1
0	22943	34.3	1
0	22944	34.3	2
0	22945	34.3	2
0	22946	34.3	1
0	23007	34.35	1
0	23008	34.35	2
0	23009	34.35	2
0	23010	34.35	1
0	23027	34.4	1
0	23028	34.4	2
0	23029	34.4	2
0	23030	34.4	1
0	23032	34.4	1
0	23033	34.4	2
0	23034	34.4	2
0	23035	34.4	1
0	23060	34.45	1
0	23061	34.45	2
0	23062	34.45	2
0	23063	34.45	1
0	23080	34.5	1
0	23081	34.5	2
0	23082	34.5	2
0	23083	34.5	1
0	23085	34.5	1
0	23086	34.5	2
0	23087	34.5	2
0	23088	34.5	1
0	23113	34.55	1
0	23114	34.55	2
0	23115	34.55	2
0	23116	34.55	1
0	23152	34.6	1
0	23153	34.6	2
0	23154	34.6	2
0	23155	34.6	1
0	23157	34.6	1
0	23158	34.6	2
0	23159	34.6	2
0	23160	34.6	1
0	23185	34.65	1
0	23186	34.65	2
0	23187	34.65	2
0	23188	34.65	1
0	23205	34.7	1
0	23206	34.7	2
0	23207	34.7	2
0	23208	34.7	1
0	23210	34.7	1
0	23211	34.7	2
0	23212	34.7	2
0	23213	34.7	1
0	23306	34.75	1
0	23307	34.75	2
0	23308	34.75	2
0	23309	34.75	1
0	23335	34.8	1
0	23336	34.8	2
0	23337	34.8	2
0	23338	34.8	1
0	23340	34.8	1
0	23341	34.8	2
0	23342	34.8	2
0	23343	34.8	1
0	23368	34.85	1
0	23369	34.85	2
0	23370	34.85	2
0	23371	34.85	1
0	23407	34.9	1
0	23408	34.9	2
0	23409	34.9	2
0	23410	34.9	1
0	23412	34.9	1
0	23413	34.9	2
0	23414	34.9	2
0	23415	34.9	1
0	23440	34.95	1
0	23441	34.95	2
0	23442	34.95	2
0	23443	34.95	1
0	23461	35	1
0	23462	35	2
0	23463	35	2
0	23464	35	1
0	23466	35	1
0	23467	35	2
0	23468	35	2
0	23469	35	1
0	23499	35.05	1
0	23500	35.05	2
0	23501	35.05	2
0	23502	35.05	1
0	23523	35.1	1
0	23524	35.1	2
0	23525	35.1	2
0	23526	35.1	1
0	23528	35.1	1
0	23529	35.1	2
0	23530	35.1	2
0	23531	35.1	1
0	23576	35.15	1
0	23577	35.15	2
0	23578	35.15	2
0	23579	35.15	1
0	23596	35.2	1
0	23597	35.2	2
0	23598	35.2	2
0	23599	35.2	1
0	23601	35.2	1
0	23602	35.2	2
0	23603	35.2	2
0	23604	35.2	1
0	23629	35.25	1
0	23630	35.25	2
0	23631	35.25	2
0	23632	35.25	1
0	23715	35.3	1
0	23716	35.3	2
0	23717	35.3	2
0	23718	35.3	1
0	23720	35.3	1
0	23721	35.3	2
0	23722	35.3	2
0	23723	35.3	1
0	23754	35.35	1
0	23755	35.35	2
0	23756	35.35	2
0	23757	35.35	1
0	23774	35.4	1
0	23775	35.4	2
0	23776	35.4	2
0	23777	35.4	1
0	23779	35.4	1
0	23780	35.4	2
0	23781	35.4	2
0	23782	35.4	1
0	23843	35.45	1
0	23844	35.45	2
0	23845	35.45	2
0	23846	35.45	1
0	23863	35.5	1
0	23864	35.5	2
0	23865	35.5	2
0	23866	35.5	1
0	23868	35.5	1
0	23869	35.5	2
0	23870	35.5	2
0	23871	35.5	1
0	23896	35.55	1
0	23897	35.55	2
0	23898	35.55	2
0	23899	35.55	1
0	23921	35.6	1
0	23922	35.6	2
0	23923	35.6	2
0	23924	35.6	1
0	23926	35.6	1
0	23927	35.6	2
0	23928	35.6	2
0	23929	35.6	1
0	23954	35.65	1
0	23955	35.65	2
0	23956	35.65	2
0	23957	35.65	1
0	23979	35.7	1
0	23980	35.7	2
0	23981	35.7	2
0	23982	35.7	1
0	23984	35.7	1
0	23985	35.7	2
0	23986	35.7	2
0	23987	35.7	1
0	24012	35.75	1
0	24013	35.75	2
0	24014	35.75	2
0	24015	35.75	1
0	24032	35.8	1
0	24033	35.8	2
0	24034	35.8	2
0	24035	35.8	1
0	24037	35.8	1
0	24038	35.8	2
0	24039	35.8	2
0	24040	35.8	1
0	24084	35.85	1
0	24085	35.85	2
0	24086	35.85	2
0	24087	35.85	1
0	24104	35.9	1
0	24105	35.9	2
0	24106	35.9	2
0	24107	35.9	1
0	24109	35.9	1
0	24110	35.9	2
0	24111	35.9	2
0	24112	35.9	1
0	24137	35.95	1
0	24138	35.95	2
0	24139	35.95	2
0	24140	35.95	1
0	24176	36	1
0	24177	36	2
0	24178	36	2
0	24179	36	1
0	24181	36	1
0	24182	36	2
0	24183	36	2
0	24184	36	1
0	24209	36.05	1
0	24210	36.05	2
0	24211	36.05	2
0	24212	36.05	1
0	24233	36.1	1
0	24234	36.1	2
0	24235	36.1	2
0	24236	36.1	1
0	24238	36.1	1
0	24239	36.1	2
0	24240	36.1	2
0	24241	36.1	1
0	24271	36.15	1
0	24272	36.15	2
0	24273	36.15	2
0	24274	36.15	1
0	24291	36.2	1
0	24292	36.2	2
0	24293	36.2	2
0	24294	36.2	1
0	24296	36.2	1
0	24297	36.2	2
0	24298	36.2	2
0	24299	36.2	1
0	24324	36.25	1
0	24325	36.25	2
0	24326	36.25	2
0	24327	36.25	1
0	24344	36.3	1
0	24345	36.3	2
0	24346	36.3	2
0	24347	36.3	1
0	24349	36.3	1
0	24350	36.3	2
0	24351	36.3	2
0	24352	36.3	1
0	24377	36.35	1
0	24378	36.35	2
0	24379	36.35	2
0	24380	36.35	1
0	24416	36.4	1
0	24417	36.4	2
0	24418	36.4	2
0	24419	36.4	1
0	24421	36.4	1
0	24422	36.4	2
0	24423	36.4	2
0	24424	36.4	1
0	24449	36.45	1
0	24450	36.45	2
0	24451	36.45	2
0	24452	36.45	1
0	24469	36.5	1
0	24470	36.5	2
0	24471	36.5	2
0	24472	36.5	1
0	24474	36.5	1
0	24475	36.5	2
0	24476	36.5	2
0	24477	36.5	1
0	24507	36.55	1
0	24508	36.55	2
0	24509	36.55	2
0	24510	36.55	1
0	24527	36.6	1
0	24528	36.6	2
0	24529	36.6	2
0	24530	36.6	1
0	24532	36.6	1
0	24533	36.6	2
0	24534	36.6	2
0	24535	36.6	1
0	24579	36.65	1
0	24580	36.65	2
0	24581	36.65	2
0	24582	36.65	1
0	24599	36.7	1
0	24600	36.7	2
0	24601	36.7	2
0	24602	36.7	1
0	24604	36.7	1
0	24605	36.7	2
0	24606	36.7	2
0	24607	36.7	1
0	24632	36.75	1
0	24633	36.75	2
0	24634	36.75	2
0	24635	36.75	1
0	24657	36.8	1
0	24658	36.8	2
0	24659	36.8	2
0	24660	36.8	1
0	24662	36.8	1
0	24663	36.8	2
0	24664	36.8	2
0	24665	36.8	1
0	24690	36.85	1
0	24691	36.85	2
0	24692	36.85	2
0	24693	36.85	1
0	24734	36.9	1
0	24735	36.9	2
0	24736	36.9	2
0	24737	36.9	1
0	24739	36.9	1
0	24740	36.9	2
0	24741	36.9	2
0	24742	36.9	1
0	24767	36.95	1
0	24768	36.95	2
0	24769	36.95	2
0	24770	36.95	1
0	24790	37	1
0	24791	37	2
0	24792	37	2
0	24793	37	1
0	24795	37	1
0	24796	37	2
0	24797	37	2
0	24798	37	1
0	24828	37.05	1
0	24829	37.05	2
0	24830	37.05	2
0	24831	37.05	1
0	24852	37.1	1
0	24853	37.1	2
0	24854	37.1	2
0	24855	37.1	1
0	24857	37.1	1
0	24858	37.1	2
0	24859	37.1	2
0	24860	37.1	1
0	24890	37.15	1
0	24891	37.15	2
0	24892	37.15	2
0	24893	37.15	1
0	24910	37.2	1
0	24911	37.2	2
0	24912	37.2	2
0	24913	37.2	1
0	24915	37.2	1
0	24916	37.2	2
0	24917	37.2	2
0	24918	37.2	1
0	24943	37.25	1
0	24944	37.25	2
0	24945	37.25	2
0	24946	37.25	1
0	24963	37.3	1
0	24964	37.3	2
0	24965	37.3	2
0	24966	37.3	1
0	24968	37.3	1
0	24969	37.3	2
0	24970	37.3	2
0	24971	37.3	1
0	24996	37.35	1
0	24997	37.35	2
0	24998	37.35	2
0	24999	37.35	1
0	25016	37.4	1
0	25017	37.4	2
0	25018	37.4	2
0	25019	37.4	1
0	25021	37.4	1
0	25022	37.4	2
0	25023	37.4	2
0	25024	37.4	1
0	25049	37.45	1
0	25050	37.45	2
0	25051	37.45	2
0	25052	37.45	1
0	25069	37.5	1
0	25070	37.5	2
0	25071	37.5	2
0	25072	37.5	1
0	25074	37.5	1
0	25075	37.5	2
0	25076	37.5	2
0	25077	37.5	1
0	25102	37.55	1
0	25103	37.55	2
0	25104	37.55	2
0	25105	37.55	1
0	25122	37.6	1
0	25123	37.6	2
0	25124	37.6	2
0	25125	37.6	1
0	25127	37.6	1
0	25128	37.6	2
0	25129	37.6	2
0	25130	37.6	1
0	25155	37.65	1
0	25156	37.65	2
0	25157	37.65	2
0	25158	37.65	1
0	25175	37.7	1
0	25176	37.7	2
0	25177	37.7	2
0	25178	37.7	1
0	25180	37.7	1
0	25181	37.7	2
0	25182	37.7	2
0	25183	37.7	1
0	25208	37.75	1
0	25209	37.75	2
0	25210	37.75	2
0	25211	37.75	1
0	25228	37.8	1
0	25229	37.8	2
0	25230	37.8	2
0	25231	37.8	1
0	25233	37.8	1
0	25234	37.8	2
0	25235	37.8	2
0	25236	37.8	1
0	25261	37.85	1
0	25262	37.85	2
0	25263	37.85	2
0	25264	37.85	1
0	25281	37.9	1
0	25282	37.9	2
0	25283	37.9	2
0	25284	37.9	1
0	25286	37.9	1
0	25287	37.9	2
0	25288	37.9	2
0	25289	37.9	1
0	25314	37.95	1
0	25315	37.95	2
0	25316	37.95	2
0	25317	37.95	1
0	25353	38	1
0	25354	38	2
0	25355	38	2
0	25356	38	1
0	25358	38	1
0	25359	38	2
0	25360	38	2
0	25361	38	1
0	25386	38.05	1
0	25387	38.05	2
0	25388	38.05	2
0	25389	38.05	1
0	25410	38.1	1
0	25411	38.1	2
0	25412	38.1	2
0	25413	38.1	1
0	25415	38.1	1
0	25416	38.1	2
0	25417	38.1	2
0	25418	38.1	1
0	25497	38.15	1
0	25498	38.15	2
0	25499	38.15	2
0	25500	38.15	1
0	25538	38.2	1
0	25539	38.2	2
0	25540	38.2	2
0	25541	38.2	1
0	25543	38.2	1
0	25544	38.2	2
0	25545	38.2	2
0	25546	38.2	1
0	25586	38.25	1
0	25587	38.25	2
0	25588	38.25	2
0	25589	38.25	1
0	25606	38.3	1
0	25607	38.3	2
0	25608	38.3	2
0	25609	38.3	1
0	25611	38.3	1
0	25612	38.3	2
0	25613	38.3	2
0	25614	38.3	1
0	25639	38.35	1
0	25640	38.35	2
0	25641	38.35	2
0	25642	38.35	1
0	25664	38.4	1
0	25665	38.4	2
0	25666	38.4	2
0	25667	38.4	1
0	25669	38.4	1
0	25670	38.4	2
0	25671	38.4	2
0	25672	38.4	1
0	25697	38.45	1
0	25698	38.45	2
0	25699	38.45	2
0	25700	38.45	1
0	25766	38.5	1
0	25767	38.5	2
0	25768	38.5	2
0	25769	38.5	1
0	25771	38.5	1
0	25772	38.5	2
0	25773	38.5	2
0	25774	38.5	1
0	25836	38.55	1
0	25837	38.55	2
0	25838	38.55	2
0	25839	38.55	1
0	25856	38.6	1
0	25857	38.6	2
0	25858	38.6	2
0	25859	38.6	1
0	25861	38.6	1
0	25862	38.6	2
0	25863	38.6	2
0	25864	38.6	1
0	25894	38.65	1
0	25895	38.65	2
0	25896	38.65	2
0	25897	38.65	1
0	25933	38.7	1
0	25934	38.7	2
0	25935	38.7	2
0	25936	38.7	1
0	25938	38.7	1
0	25939	38.7	2
0	25940	38.7	2
0	25941	38.7	1
0	25966	38.75	1
0	25967	38.75	2
0	25968	38.75	2
0	25969	38.75	1
0	25986	38.8	1
0	25987	38.8	2
0	25988	38.8	2
0	25989	38.8	1
0	25991	38.8	1
0	25992	38.8	2
0	25993	38.8	2
0	25994	38.8	1
0	26019	38.85	1
0	26020	38.85	2
0	26021	38.85	2
0	26022	38.85	1
0	26039	38.9	1
0	26040	38.9	2
0	26041	38.9	2
0	26042	38.9	1
0	26044	38.9	1
0	26045	38.9	2
0	26046	38.9	2
0	26047	38.9	1
0	26072	38.95	1
0	26073	38.95	2
0	26074	38.95	2
0	26075	38.95	1
0	26092	39	1
0	26093	39	2
0	26094	39	2
0	26095	39	1
0	26097	39	1
0	26098	39	2
0	26099	39	2
0	26100	39	1
0	26125	39.05	1
0	26126	39.05	2
0	26127	39.05	2
0	26128	39.05	1
0	26168	39.1	1
0	26169	39.1	2
0	26170	39.1	2
0	26171	39.1	1
0	26173	39.1	1
0	26174	39.1	2
0	26175	39.1	2
0	26176	39.1	1
0	26206	39.15	1
0	26207	39.15	2
0	26208	39.15	2
0	26209	39.15	1
0	26226	39.2	1
0	26227	39.2	2
0	26228	39.2	2
0	26229	39.2	1
0	26231	39.2	1
0	26232	39.2	2
0	26233	39.2	2
0	26234	39.2	1
0	26274	39.25	1
0	26275	39.25	2
0	26276	39.25	2
0	26277	39.25	1
0	26294	39.3	1
0	26295	39.3	2
0	26296	39.3	2
0	26297	39.3	1
0	26299	39.3	1
0	26300	39.3	2
0	26301	39.3	2
0	26302	39.3	1
0	26327	39.35	1
0	26328	39.35	2
0	26329	39.35	2
0	26330	39.35	1
0	26347	39.4	1
0	26348	39.4	2
0	26349	39.4	2
0	26350	39.4	1
0	26352	39.4	1
0	26353	39.4	2
0	26354	39.4	2
0	26355	39.4	1
0	26380	39.45	1
0	26381	39.45	2
0	26382	39.45	2
0	26383	39.45	1
0	26400	39.5	1
0	26401	39.5	2
0	26402	39.5	2
0	26403	39.5	1
0	26405	39.5	1
0	26406	39.5	2
0	26407	39.5	2
0	26408	39.5	1
0	26433	39.55	1
0	26434	39.55	2
0	26435	39.55	2
0	26436	39.55	1
0	26453	39.6	1
0	26454	39.6	2
0	26455	39.6	2
0	26456	39.6	1
0	26458	39.6	1
0	26459	39.6	2
0	26460	39.6	2
0	26461	39.6	1
0	26505	39.65	1
0	26506	39.65	2
0	26507	39.65	2
0	26508	39.65	1
0	26525	39.7	1
0	26526	39.7	2
0	26527	39.7	2
0	26528	39.7	1
0	26530	39.7	1
0	26531	39.7	2
0	26532	39.7	2
0	26533	39.7	1
0	26558	39.75	1
0	26559	39.75	2
0	26560	39.75	2
0	26561	39.75	1
0	26614	39.8	1
0	26615	39.8	2
0	26616	39.8	2
0	26617	39.8	1
0	26619	39.8	1
0	26620	39.8	2
0	26621	39.8	2
0	26622	39.8	1
0	26666	39.85	1
0	26667	39.85	2
0	26668	39.85	2
0	26669	39.85	1
0	26686	39.9	1
0	26687	39.9	2
0	26688	39.9	2
0	26689	39.9	1
0	26691	39.9	1
0	26692	39.9	2
0	26693	39.9	2
0	26694	39.9	1
0	26719	39.95	1
0	26720	39.95	2
0	26721	39.95	2
0	26722	39.95	1
0	26745	40	1
0	26746	40	2
0	26747	40	2
0	26748	40	1
0	26750	40	1
0	26751	40	2
0	26752	40	2
0	26753	40	1
0	26778	40.05	1
0	26779	40.05	2
0	26780	40.05	2
0	26781	40.05	1
0	26807	40.1	1
0	26808	40.1	2
0	26809	40.1	2
0	26810	40.1	1
0	26812	40.1	1
0	26813	40.1	2
0	26814	40.1	2
0	26815	40.1	1
0	26845	40.15	1
0	26846	40.15	2
0	26847	40.15	2
0	26848	40.15	1
0	26884	40.2	1
0	26885	40.2	2
0	26886	40.2	2
0	26887	40.2	1
0	26889	40.2	1
0	26890	40.2	2
0	26891	40.2	2
0	26892	40.2	1
0	26932	40.25	1
0	26933	40.25	2
0	26934	40.25	2
0	26935	40.25	1
0	26952	40.3	1
0	26953	40.3	2
0	26954	40.3	2
0	26955	40.3	1
0	26957	40.3	1
0	26958	40.3	2
0	26959	40.3	2
0	26960	40.3	1
0	27021	40.35	1
0	27022	40.35	2
0	27023	40.35	2
0	27024	40.35	1
0	27041	40.4	1
0	27042	40.4	2
0	27043	40.4	2
0	27044	40.4	1
0	27046	40.4	1
0	27047	40.4	2
0	27048	40.4	2
0	27049	40.4	1
0	27074	40.45	1
0	27075	40.45	2
0	27076	40.45	2
0	27077	40.45	1
0	27094	40.5	1
0	27095	40.5	2
0	27096	40.5	2
0	27097	40.5	1
0	27099	40.5	1
0	27100	40.5	2
0	27101	40.5	2
0	27102	40.5	1
0	27127	40.55	1
0	27128	40.55	2
0	27129	40.55	2
0	27130	40.55	1
0	27147	40.6	1
0	27148	40.6	2
0	27149	40.6	2
0	27150	40.6	1
0	27152	40.6	1
0	27153	40.6	2
0	27154	40.6	2
0	27155	40.6	1
0	27195	40.65	1
0	27196	40.65	2
0	27197	40.65	2
0	27198	40.65	1
0	27215	40.7	1
0	27216	40.7	2
0	27217	40.7	2
0	27218	40.7	1
0	27220	40.7	1
0	27221	40.7	2
0	27222	40.7	2
0	27223	40.7	1
0	27267	40.75	1
0	27268	40.75	2
0	27269	40.75	2
0	27270	40.75	1
0	27306	40.8	1
0	27307	40.8	2
0	27308	40.8	2
0	27309	40.8	1
0	27311	40.8	1
0	27312	40.8	2
0	27313	40.8	2
0	27314	40.8	1
0	27339	40.85	1
0	27340	40.85	2
0	27341	40.85	2
0	27342	40.85	1
0	27378	40.9	1
0	27379	40.9	2
0	27380	40.9	2
0	27381	40.9	1
0	27383	40.9	1
0	27384	40.9	2
0	27385	40.9	2
0	27386	40.9	1
0	27411	40.95	1
0	27412	40.95	2
0	27413	40.95	2
0	27414	40.95	1
0	27431	41	1
0	27432	41	2
0	27433	41	2
0	27434	41	1
0	27436	41	1
0	27437	41	2
0	27438	41	2
0	27439	41	1
0	27464	41.05	1
0	27465	41.05	2
0	27466	41.05	2
0	27467	41.05	1
0	27488	41.1	1
0	27489	41.1	2
0	27490	41.1	2
0	27491	41.1	1
0	27493	41.1	1
0	27494	41.1	2
0	27495	41.1	2
0	27496	41.1	1
0	27526	41.15	1
0	27527	41.15	2
0	27528	41.15	2
0	27529	41.15	1
0	27597	41.2	1
0	27598	41.2	2
0	27599	41.2	2
0	27600	41.2	1
0	27602	41.2	1
0	27603	41.2	2
0	27604	41.2	2
0	27605	41.2	1
0	27651	41.25	1
0	27652	41.25	2
0	27653	41.25	2
0	27654	41.25	1
0	27690	41.3	1
0	27691	41.3	2
0	27692	41.3	2
0	27693	41.3	1
0	27695	41.3	1
0	27696	41.3	2
0	27697	41.3	2
0	27698	41.3	1
0	27728	41.35	1
0	27729	41.35	2
0	27730	41.35	2
0	27731	41.35	1
0	27748	41.4	1
0	27749	41.4	2
0	27750	41.4	2
0	27751	41.4	1
0	27753	41.4	1
0	27754	41.4	2
0	27755	41.4	2
0	27756	41.4	1
0	27822	41.45	1
0	27823	41.45	2
0	27824	41.45	2
0	27825	41.45	1
0	27842	41.5	1
0	27843	41.5	2
0	27844	41.5	2
0	27845	41.5	1
0	27847	41.5	1
0	27848	41.5	2
0	27849	41.5	2
0	27850	41.5	1
0	27875	41.55	1
0	27876	41.55	2
0	27877	41.55	2
0	27878	41.55	1
0	27910	41.6	1
0	27911	41.6	2
0	27912	41.6	2
0	27913	41.6	1
0	27915	41.6	1
0	27916	41.6	2
0	27917	41.6	2
0	27918	41.6	1
0	27943	41.65	1
0	27944	41.65	2
0	27945	41.65	2
0	27946	41.65	1
0	27963	41.7	1
0	27964	41.7	2
0	27965	41.7	2
0	27966	41.7	1
0	27968	41.7	1
0	27969	41.7	2
0	27970	41.7	2
0	27971	41.7	1
0	27996	41.75	1
0	27997	41.75	2
0	27998	41.75	2
0	27999	41.75	1
0	28016	41.8	1
0	28017	41.8	2
0	28018	41.8	2
0	28019	41.8	1
0	28021	41.8	1
0	28022	41.8	2
0	28023	41.8	2
0	28024	41.8	1
0	28068	41.85	1
0	28069	41.85	2
0	28070	41.85	2
0	28071	41.85	1
0	28088	41.9	1
0	28089	41.9	2
0	28090	41.9	2
0	28091	41.9	1
0	28093	41.9	1
0	28094	41.9	2
0	28095	41.9	2
0	28096	41.9	1
0	28121	41.95	1
0	28122	41.95	2
0	28123	41.95	2
0	28124	41.95	1
0	28168	42	1
0	28169	42	2
0	28170	42	2
0	28171	42	1
0	28173	42	1
0	28174	42	2
0	28175	42	2
0	28176	42	1
0	28201	42.05	1
0	28202	42.05	2
0	28203	42.05	2
0	28204	42.05	1
0	28225	42.1	1
0	28226	42.1	2
0	28227	42.1	2
0	28228	42.1	1
0	28230	42.1	1
0	28231	42.1	2
0	28232	42.1	2
0	28233	42.1	1
0	28263	42.15	1
0	28264	42.15	2
0	28265	42.15	2
0	28266	42.15	1
0	28283	42.2	1
0	28284	42.2	2
0	28285	42.2	2
0	28286	42.2	1
0	28288	42.2	1
0	28289	42.2	2
0	28290	42.2	2
0	28291	42.2	1
0	28316	42.25	1
0	28317	42.25	2
0	28318	42.25	2
0	28319	42.25	1
0	28336	42.3	1
0	28337	42.3	2
0	28338	42.3	2
0	28339	42.3	1
0	28341	42.3	1
0	28342	42.3	2
0	28343	42.3	2
0	28344	42.3	1
0	28369	42.35	1
0	28370	42.35	2
0	28371	42.35	2
0	28372	42.35	1
0	28408	42.4	1
0	28409	42.4	2
0	28410	42.4	2
0	28411	42.4	1
0	28413	42.4	1
0	28414	42.4	2
0	28415	42.4	2
0	28416	42.4	1
0	28441	42.45	1
0	28442	42.45	2
0	28443	42.45	2
0	28444	42.45	1
0	28461	42.5	1
0	28462	42.5	2
0	28463	42.5	2
0	28464	42.5	1
0	28466	42.5	1
0	28467	42.5	2
0	28468	42.5	2
0	28469	42.5	1
0	28530	42.55	1
0	28531	42.55	2
0	28532	42.55	2
0	28533	42.55	1
0	28550	42.6	1
0	28551	42.6	2
0	28552	42.6	2
0	28553	42.6	1
0	28555	42.6	1
0	28556	42.6	2
0	28557	42.6	2
0	28558	42.6	1
0	28583	42.65	1
0	28584	42.65	2
0	28585	42.65	2
0	28586	42.65	1
0	28603	42.7	1
0	28604	42.7	2
0	28605	42.7	2
0	28606	42.7	1
0	28608	42.7	1
0	28609	42.7	2
0	28610	42.7	2
0	28611	42.7	1
0	28636	42.75	1
0	28637	42.75	2
0	28638	42.75	2
0	28639	42.75	1
0	28671	42.8	1
0	28672	42.8	2
0	28673	42.8	2
0	28674	42.8	1
0	28676	42.8	1
0	28677	42.8	2
0	28678	42.8	2
0	28679	42.8	1
0	28704	42.85	1
0	28705	42.85	2
0	28706	42.85	2
0	28707	42.85	1
0	28724	42.9	1
0	28725	42.9	2
0	28726	42.9	2
0	28727	42.9	1
0	28729	42.9	1
0	28730	42.9	2
0	28731	42.9	2
0	28732	42.9	1
0	28781	42.95	1
0	28782	42.95	2
0	28783	42.95	2
0	28784	42.95	1
0	28801	43	1
0	28802	43	2
0	28803	43	2
0	28804	43	1
0	28806	43	1
0	28807	43	2
0	28808	43	2
0	28809	43	1
0	28834	43.05	1
0	28835	43.05	2
0	28836	43.05	2
0	28837	43.05	1
0	28877	43.1	1
0	28878	43.1	2
0	28879	43.1	2
0	28880	43.1	1
0	28882	43.1	1
0	28883	43.1	2
0	28884	43.1	2
0	28885	43.1	1
0	28915	43.15	1
0	28916	43.15	2
0	28917	43.15	2
0	28918	43.15	1
0	28954	43.2	1
0	28955	43.2	2
0	28956	43.2	2
0	28957	43.2	1
0	28959	43.2	1
0	28960	43.2	2
0	28961	43.2	2
0	28962	43.2	1
0	28987	43.25	1
0	28988	43.25	2
0	28989	43.25	2
0	28990	43.25	1
0	29007	43.3	1
0	29008	43.3	2
0	29009	43.3	2
0	29010	43.3	1
0	29012	43.3	1
0	29013	43.3	2
0	29014	43.3	2
0	29015	43.3	1
0	29045	43.35	1
0	29046	43.35	2
0	29047	43.35	2
0	29048	43.35	1
0	29065	43.4	1
0	29066	43.4	2
0	29067	43.4	2
0	29068	43.4	1
0	29070	43.4	1
0	29071	43.4	2
0	29072	43.4	2
0	29073	43.4	1
0	29098	43.45	1
0	29099	43.45	2
0	29100	43.45	2
0	29101	43.45	1
0	29137	43.5	1
0	29138	43.5	2
0	29139	43.5	2
0	29140	43.5	1
0	29142	43.5	1
0	29143	43.5	2
0	29144	43.5	2
0	29145	43.5	1
0	29170	43.55	1
0	29171	43.55	2
0	29172	43.55	2
0	29173	43.55	1
0	29190	43.6	1
0	29191	43.6	2
0	29192	43.6	2
0	29193	43.6	1
0	29195	43.6	1
0	29196	43.6	2
0	29197	43.6	2
0	29198	43.6	1
0	29259	43.65	1
0	29260	43.65	2
0	29261	43.65	2
0	29262	43.65	1
0	29279	43.7	1
0	29280	43.7	2
0	29281	43.7	2
0	29282	43.7	1
0	29284	43.7	1
0	29285	43.7	2
0	29286	43.7	2
0	29287	43.7	1
0	29312	43.75	1
0	29313	43.75	2
0	29314	43.75	2
0	29315	43.75	1
[...]
0	62116	90.2	1
0	62117	90.2	1
0	62118	90.2	1
0	62119	90.2	1
0	62120	90.2	1
0	62145	90.25	1
0	62146	90.25	1
0	62147	90.25	1
0	62148	90.25	1
0	62201	90.3	1
0	62202	90.3	1
0	62203	90.3	1
0	62204	90.3	1
0	62205	90.3	1
0	62206	90.3	1
0	62207	90.3	1
0	62208	90.3	1
0	62233	90.35	1
0	62234	90.35	1
0	62235	90.35	1
0	62236	90.35	1
0	62253	90.4	1
0	62254	90.4	1
0	62255	90.4	1
0	62256	90.4	1
0	62257	90.4	1
0	62258	90.4	1
0	62259	90.4	1
0	62260	90.4	1
0	62285	90.45	1
0	62286	90.45	1
0	62287	90.45	1
0	62288	90.45	1
0	62305	90.5	1
0	62306	90.5	1
0	62307	90.5	1
0	62308	90.5	1
0	62309	90.5	1
0	62310	90.5	1
0	62311	90.5	1
0	62312	90.5	1
0	62337	90.55	1
0	62338	90.55	1
0	62339	90.55	1
0	62340	90.55	1
0	62404	90.6	1
0	62405	90.6	1
0	62406	90.6	1
0	62407	90.6	1
0	62408	90.6	1
0	62409	90.6	1
0	62410	90.6	1
0	62411	90.6	1
0	62461	90.65	1
0	62462	90.65	1
0	62463	90.65	1
0	62464	90.65	1
0	62481	90.7	1
0	62482	90.7	1
0	62483	90.7	1
0	62484	90.7	1
0	62485	90.7	1
0	62486	90.7	1
0	62487	90.7	1
0	62488	90.7	1
0	62528	90.75	1
0	62529	90.75	1
0	62530	90.75	1
0	62531	90.75	1
0	62548	90.8	1
0	62549	90.8	1
0	62550	90.8	1
0	62551	90.8	1
0	62552	90.8	1
0	62553	90.8	1
0	62554	90.8	1
0	62555	90.8	1
0	62599	90.85	1
0	62600	90.85	1
0	62601	90.85	1
0	62602	90.85	1
0	62619	90.9	1
0	62620	90.9	1
0	62621	90.9	1
0	62622	90.9	1
0	62623	90.9	1
0	62624	90.9	1
0	62625	90.9	1
0	62626	90.9	1
0	62651	90.95	1
0	62652	90.95	1
0	62653	90.95	1
0	62654	90.95	1
0	62671	91	1
0	62672	91	1
0	62673	91	1
0	62674	91	1
0	62675	91	1
0	62676	91	1
0	62677	91	1
0	62678	91	1
0	62703	91.05	1
0	62704	91.05	1
0	62705	91.05	1
0	62706	91.05	1
0	62727	91.1	1
0	62728	91.1	1
0	62729	91.1	1
0	62730	91.1	1
0	62731	91.1	1
0	62732	91.1	1
0	62733	91.1	1
0	62734	91.1	1
0	62801	91.15	1
0	62802	91.15	1
0	62803	91.15	1
0	62804	91.15	1
0	62840	91.2	1
0	62841	91.2	1
0	62842	91.2	1
0	62843	91.2	1
0	62844	91.2	1
0	62845	91.2	1
0	62846	91.2	1
0	62847	91.2	1
0	62872	91.25	1
0	62873	91.25	1
0	62874	91.25	1
0	62875	91.25	1
0	62911	91.3	1
0	62912	91.3	1
0	62913	91.3	1
0	62914	91.3	1
0	62915	91.3	1
0	62916	91.3	1
0	62917	91.3	1
0	62918	91.3	1
0	62943	91.35	1
0	62944	91.35	1
0	62945	91.35	1
0	62946	91.35	1
0	62999	91.4	1
0	63000	91.4	1
0	63001	91.4	1
0	63002	91.4	1
0	63003	91.4	1
0	63004	91.4	1
0	63005	91.4	1
0	63006	91.4	1
0	63031	91.45	1
0	63032	91.45	1
0	63033	91.45	1
0	63034	91.45	1
0	63051	91.5	1
0	63052	91.5	1
0	63053	91.5	1
0	63054	91.5	1
0	63055	91.5	1
0	63056	91.5	1
0	63057	91.5	1
0	63058	91.5	1
0	63083	91.55	1
0	63084	91.55	1
0	63085	91.55	1
0	63086	91.55	1
0	63103	91.6	1
0	63104	91.6	1
0	63105	91.6	1
0	63106	91.6	1
0	63107	91.6	1
0	63108	91.6	1
0	63109	91.6	1
0	63110	91.6	1
0	63135	91.65	1
0	63136	91.65	1
0	63137	91.65	1
0	63138	91.65	1
0	63174	91.7	1
0	63175	91.7	1
0	63176	91.7	1
0	63177	91.7	1
0	63178	91.7	1
0	63179	91.7	1
0	63180	91.7	1
0	63181	91.7	1
0	63225	91.75	1
0	63226	91.75	1
0	63227	91.75	1
0	63228	91.75	1
0	63245	91.8	1
0	63246	91.8	1
0	63247	91.8	1
0	63248	91.8	1
0	63249	91.8	1
0	63250	91.8	1
0	63251	91.8	1
0	63252	91.8	1
0	63296	91.85	1
0	63297	91.85	1
0	63298	91.85	1
0	63299	91.85	1
0	63316	91.9	1
0	63317	91.9	1
0	63318	91.9	1
0	63319	91.9	1
0	63320	91.9	1
0	63321	91.9	1
0	63322	91.9	1
0	63323	91.9	1
0	63367	91.95	1
0	63368	91.95	1
0	63369	91.95	1
0	63370	91.95	1
0	63390	92	1
0	63391	92	1
0	63392	92	1
0	63393	92	1
0	63394	92	1
0	63395	92	1
0	63396	92	1
0	63397	92	1
0	63422	92.05	1
0	63423	92.05	1
0	63424	92.05	1
0	63425	92.05	1
0	63446	92.1	1
0	63447	92.1	1
0	63448	92.1	1
0	63449	92.1	1
0	63450	92.1	1
0	63451	92.1	1
0	63452	92.1	1
0	63453	92.1	1
0	63484	92.15	1
0	63485	92.15	1
0	63486	92.15	1
0	63487	92.15	1
0	63504	92.2	1
0	63505	92.2	1
0	63506	92.2	1
0	63507	92.2	1
0	63508	92.2	1
0	63509	92.2	1
0	63510	92.2	1
0	63511	92.2	1
0	63569	92.25	1
0	63570	92.25	1
0	63571	92.25	1
0	63572	92.25	1
0	63608	92.3	1
0	63609	92.3	1
0	63610	92.3	1
0	63611	92.3	1
0	63612	92.3	1
0	63613	92.3	1
0	63614	92.3	1
0	63615	92.3	1
0	63640	92.35	1
0	63641	92.35	1
0	63642	92.35	1
0	63643	92.35	1
0	63679	92.4	1
0	63680	92.4	1
0	63681	92.4	1
0	63682	92.4	1
0	63683	92.4	1
0	63684	92.4	1
0	63685	92.4	1
0	63686	92.4	1
0	63711	92.45	1
0	63712	92.45	1
0	63713	92.45	1
0	63714	92.45	1
0	63767	92.5	1
0	63768	92.5	1
0	63769	92.5	1
0	63770	92.5	1
0	63771	92.5	1
0	63772	92.5	1
0	63773	92.5	1
0	63774	92.5	1
0	63799	92.55	1
0	63800	92.55	1
0	63801	92.55	1
0	63802	92.55	1
0	63819	92.6	1
0	63820	92.6	1
0	63821	92.6	1
0	63822	92.6	1
0	63823	92.6	1
0	63824	92.6	1
0	63825	92.6	1
0	63826	92.6	1
0	63851	92.65	1
0	63852	92.65	1
0	63853	92.65	1
0	63854	92.65	1
0	63871	92.7	1
0	63872	92.7	1
0	63873	92.7	1
0	63874	92.7	1
0	63875	92.7	1
0	63876	92.7	1
0	63877	92.7	1
0	63878	92.7	1
0	63903	92.75	1
0	63904	92.75	1
0	63905	92.75	1
0	63906	92.75	1
0	63959	92.8	1
0	63960	92.8	1
0	63961	92.8	1
0	63962	92.8	1
0	63963	92.8	1
0	63964	92.8	1
0	63965	92.8	1
0	63966	92.8	1
0	64010	92.85	1
0	64011	92.85	1
0	64012	92.85	1
0	64013	92.85	1
0	64030	92.9	1
0	64031	92.9	1
0	64032	92.9	1
0	64033	92.9	1
0	64034	92.9	1
0	64035	92.9	1
0	64036	92.9	1
0	64037	92.9	1
0	64081	92.95	1
0	64082	92.95	1
0	64083	92.95	1
0	64084	92.95	1
0	64101	93	1
0	64102	93	1
0	64103	93	1
0	64104	93	1
0	64105	93	1
0	64106	93	1
0	64107	93	1
0	64108	93	1
0	64152	93.05	1
0	64153	93.05	1
0	64154	93.05	1
0	64155	93.05	1
0	64176	93.1	1
0	64177	93.1	1
0	64178	93.1	1
0	64179	93.1	1
0	64180	93.1	1
0	64181	93.1	1
0	64182	93.1	1
0	64183	93.1	1
0	64214	93.15	1
0	64215	93.15	1
0	64216	93.15	1
0	64217	93.15	1
0	64234	93.2	1
0	64235	93.2	1
0	64236	93.2	1
0	64237	93.2	1
0	64238	93.2	1
0	64239	93.2	1
0	64240	93.2	1
0	64241	93.2	1
0	64266	93.25	1
0	64267	93.25	1
0	64268	93.25	1
0	64269	93.25	1
0	64286	93.3	1
0	64287	93.3	1
0	64288	93.3	1
0	64289	93.3	1
0	64290	93.3	1
0	64291	93.3	1
0	64292	93.3	1
0	64293	93.3	1
0	64354	93.35	1
0	64355	93.35	1
0	64356	93.35	1
0	64357	93.35	1
0	64393	93.4	1
0	64394	93.4	1
0	64395	93.4	1
0	64396	93.4	1
0	64397	93.4	1
0	64398	93.4	1
0	64399	93.4	1
0	64400	93.4	1
0	64425	93.45	1
0	64426	93.45	1
0	64427	93.45	1
0	64428	93.45	1
0	64464	93.5	1
0	64465	93.5	1
0	64466	93.5	1
0	64467	93.5	1
0	64468	93.5	1
0	64469	93.5	1
0	64470	93.5	1
0	64471	93.5	1
0	64496	93.55	1
0	64497	93.55	1
0	64498	93.55	1
0	64499	93.55	1
0	64552	93.6	1
0	64553	93.6	1
0	64554	93.6	1
0	64555	93.6	1
0	64556	93.6	1
0	64557	93.6	1
0	64558	93.6	1
0	64559	93.6	1
0	64584	93.65	1
0	64585	93.65	1
0	64586	93.65	1
0	64587	93.65	1
0	64604	93.7	1
0	64605	93.7	1
0	64606	93.7	1
0	64607	93.7	1
0	64608	93.7	1
0	64609	93.7	1
0	64610	93.7	1
0	64611	93.7	1
0	64636	93.75	1
0	64637	93.75	1
0	64638	93.75	1
0	64639	93.75	1
0	64656	93.8	1
0	64657	93.8	1
0	64658	93.8	1
0	64659	93.8	1
0	64660	93.8	1
0	64661	93.8	1
0	64662	93.8	1
0	64663	93.8	1
0	64688	93.85	1
0	64689	93.85	1
0	64690	93.85	1
0	64691	93.85	1
0	64727	93.9	1
0	64728	93.9	1
0	64729	93.9	1
0	64730	93.9	1
0	64731	93.9	1
0	64732	93.9	1
0	64733	93.9	1
0	64734	93.9	1
0	64778	93.95	1
0	64779	93.95	1
0	64780	93.95	1
0	64781	93.95	1
0	64798	94	1
0	64799	94	1
0	64800	94	1
0	64801	94	1
0	64802	94	1
0	64803	94	1
0	64804	94	1
0	64805	94	1
0	64849	94.05	1
0	64850	94.05	1
0	64851	94.05	1
0	64852	94.05	1
0	64873	94.1	1
0	64874	94.1	1
0	64875	94.1	1
0	64876	94.1	1
0	64877	94.1	1
0	64878	94.1	1
0	64879	94.1	1
0	64880	94.1	1
0	64947	94.15	1
0	64948	94.15	1
0	64949	94.15	1
0	64950	94.15	1
0	64967	94.2	1
0	64968	94.2	1
0	64969	94.2	1
0	64970	94.2	1
0	64971	94.2	1
0	64972	94.2	1
0	64973	94.2	1
0	64974	94.2	1
0	64999	94.25	1
0	65000	94.25	1
0	65001	94.25	1
0	65002	94.25	1
0	65019	94.3	1
0	65020	94.3	1
0	65021	94.3	1
0	65022	94.3	1
0	65023	94.3	1
0	65024	94.3	1
0	65025	94.3	1
0	65026	94.3	1
0	65051	94.35	1
0	65052	94.35	1
0	65053	94.35	1
0	65054	94.35	1
0	65071	94.4	1
0	65072	94.4	1
0	65073	94.4	1
0	65074	94.4	1
0	65075	94.4	1
0	65076	94.4	1
0	65077	94.4	1
0	65078	94.4	1
0	65139	94.45	1
0	65140	94.45	1
0	65141	94.45	1
0	65142	94.45	1
0	65178	94.5	1
0	65179	94.5	1
0	65180	94.5	1
0	65181	94.5	1
0	65182	94.5	1
0	65183	94.5	1
0	65184	94.5	1
0	65185	94.5	1
0	65210	94.55	1
0	65211	94.55	1
0	65212	94.55	1
0	65213	94.55	1
0	65249	94.6	1
0	65250	94.6	1
0	65251	94.6	1
0	65252	94.6	1
0	65253	94.6	1
0	65254	94.6	1
0	65255	94.6	1
0	65256	94.6	1
0	65281	94.65	1
0	65282	94.65	1
0	65283	94.65	1
0	65284	94.65	1
0	65320	94.7	1
0	65321	94.7	1
0	65322	94.7	1
0	65323	94.7	1
0	65324	94.7	1
0	65325	94.7	1
0	65326	94.7	1
0	65327	94.7	1
0	65352	94.75	1
0	65353	94.75	1
0	65354	94.75	1
0	65355	94.75	1
0	65372	94.8	1
0	65373	94.8	1
0	65374	94.8	1
0	65375	94.8	1
0	65376	94.8	1
0	65377	94.8	1
0	65378	94.8	1
0	65379	94.8	1
0	65404	94.85	1
0	65405	94.85	1
0	65406	94.85	1
0	65407	94.85	1
0	65424	94.9	1
0	65425	94.9	1
0	65426	94.9	1
0	65427	94.9	1
0	65428	94.9	1
0	65429	94.9	1
0	65430	94.9	1
0	65431	94.9	1
0	65456	94.95	1
0	65457	94.95	1
0	65458	94.95	1
0	65459	94.95	1
0	65496	95	1
0	65497	95	1
0	65498	95	1
0	65499	95	1
0	65500	95	1
0	65501	95	1
0	65502	95	1
0	65503	95	1
0	65547	95.05	1
0	65548	95.05	1
0	65549	95.05	1
0	65550	95.05	1
0	65571	95.1	1
0	65572	95.1	1
0	65573	95.1	1
0	65574	95.1	1
0	65575	95.1	1
0	65576	95.1	1
0	65577	95.1	1
0	65578	95.1	1
0	65628	95.15	1
0	65629	95.15	1
0	65630	95.15	1
0	65631	95.15	1
0	65648	95.2	1
0	65649	95.2	1
0	65650	95.2	1
0	65651	95.2	1
0	65652	95.2	1
0	65653	95.2	1
0	65654	95.2	1
0	65655	95.2	1
0	65716	95.25	1
0	65717	95.25	1
0	65718	95.25	1
0	65719	95.25	1
0	65736	95.3	1
0	65737	95.3	1
0	65738	95.3	1
0	65739	95.3	1
0	65740	95.3	1
0	65741	95.3	1
0	65742	95.3	1
0	65743	95.3	1
0	65768	95.35	1
0	65769	95.35	1
0	65770	95.35	1
0	65771	95.35	1
0	65788	95.4	1
0	65789	95.4	1
0	65790	95.4	1
0	65791	95.4	1
0	65792	95.4	1
0	65793	95.4	1
0	65794	95.4	1
0	65795	95.4	1
0	65820	95.45	1
0	65821	95.45	1
0	65822	95.45	1
0	65823	95.45	1
0	65840	95.5	1
0	65841	95.5	1
0	65842	95.5	1
0	65843	95.5	1
0	65844	95.5	1
0	65845	95.5	1
0	65846	95.5	1
0	65847	95.5	1
0	65887	95.55	1
0	65888	95.55	1
0	65889	95.55	1
0	65890	95.55	1
0	65926	95.6	1
0	65927	95.6	1
0	65928	95.6	1
0	65929	95.6	1
0	65930	95.6	1
0	65931	95.6	1
0	65932	95.6	1
0	65933	95.6	1
0	65958	95.65	1
0	65959	95.65	1
0	65960	95.65	1
0	65961	95.65	1
0	65997	95.7	1
0	65998	95.7	1
0	65999	95.7	1
0	66000	95.7	1
0	66001	95.7	1
0	66002	95.7	1
0	66003	95.7	1
0	66004	95.7	1
0	66029	95.75	1
0	66030	95.75	1
0	66031	95.75	1
0	66032	95.75	1
0	66068	95.8	1
0	66069	95.8	1
0	66070	95.8	1
0	66071	95.8	1
0	66072	95.8	1
0	66073	95.8	1
0	66074	95.8	1
0	66075	95.8	1
0	66100	95.85	1
0	66101	95.85	1
0	66102	95.85	1
0	66103	95.85	1
0	66120	95.9	1
0	66121	95.9	1
0	66122	95.9	1
0	66123	95.9	1
0	66124	95.9	1
0	66125	95.9	1
0	66126	95.9	1
0	66127	95.9	1
0	66152	95.95	1
0	66153	95.95	1
0	66154	95.95	1
0	66155	95.95	1
0	66172	96	1
0	66173	96	1
0	66174	96	1
0	66175	96	1
0	66176	96	1
0	66177	96	1
0	66178	96	1
0	66179	96	1
0	66204	96.05	1
0	66205	96.05	1
0	66206	96.05	1
0	66207	96.05	1
0	66264	96.1	1
0	66265	96.1	1
0	66266	96.1	1
0	66267	96.1	1
0	66268	96.1	1
0	66269	96.1	1
0	66270	96.1	1
0	66271	96.1	1
0	66321	96.15	1
0	66322	96.15	1
0	66323	96.15	1
0	66324	96.15	1
0	66341	96.2	1
0	66342	96.2	1
0	66343	96.2	1
0	66344	96.2	1
0	66345	96.2	1
0	66346	96.2	1
0	66347	96.2	1
0	66348	96.2	1
0	66392	96.25	1
0	66393	96.25	1
0	66394	96.25	1
0	66395	96.25	1
0	66412	96.3	1
0	66413	96.3	1
0	66414	96.3	1
0	66415	96.3	1
0	66416	96.3	1
0	66417	96.3	1
0	66418	96.3	1
0	66419	96.3	1
0	66480	96.35	1
0	66481	96.35	1
0	66482	96.35	1
0	66483	96.35	1
0	66500	96.4	1
0	66501	96.4	1
0	66502	96.4	1
0	66503	96.4	1
0	66504	96.4	1
0	66505	96.4	1
0	66506	96.4	1
0	66507	96.4	1
0	66532	96.45	1
0	66533	96.45	1
0	66534	96.45	1
0	66535	96.45	1
0	66552	96.5	1
0	66553	96.5	1
0	66554	96.5	1
0	66555	96.5	1
0	66556	96.5	1
0	66557	96.5	1
0	66558	96.5	1
0	66559	96.5	1
0	66584	96.55	1
0	66585	96.55	1
0	66586	96.55	1
0	66587	96.55	1
0	66604	96.6	1
0	66605	96.6	1
0	66606	96.6	1
0	66607	96.6	1
0	66608	96.6	1
0	66609	96.6	1
0	66610	96.6	1
0	66611	96.6	1
0	66672	96.65	1
0	66673	96.65	1
0	66674	96.65	1
0	66675	96.65	1
0	66711	96.7	1
0	66712	96.7	1
0	66713	96.7	1
0	66714	96.7	1
0	66715	96.7	1
0	66716	96.7	1
0	66717	96.7	1
0	66718	96.7	1
0	66743	96.75	1
0	66744	96.75	1
0	66745	96.75	1
0	66746	96.75	1
0	66782	96.8	1
0	66783	96.8	1
0	66784	96.8	1
0	66785	96.8	1
0	66786	96.8	1
0	66787	96.8	1
0	66788	96.8	1
0	66789	96.8	1
0	66814	96.85	1
0	66815	96.85	1
0	66816	96.85	1
0	66817	96.85	1
0	66853	96.9	1
0	66854	96.9	1
0	66855	96.9	1
0	66856	96.9	1
0	66857	96.9	1
0	66858	96.9	1
0	66859	96.9	1
0	66860	96.9	1
0	66885	96.95	1
0	66886	96.95	1
0	66887	96.95	1
0	66888	96.95	1
0	66908	97	1
0	66909	97	1
0	66910	97	1
0	66911	97	1
0	66912	97	1
0	66913	97	1
0	66914	97	1
0	66915	97	1
0	66940	97.05	1
0	66941	97.05	1
0	66942	97.05	1
0	66943	97.05	1
0	66964	97.1	1
0	66965	97.1	1
0	66966	97.1	1
0	66967	97.1	1
0	66968	97.1	1
0	66969	97.1	1
0	66970	97.1	1
0	66971	97.1	1
0	67002	97.15	1
0	67003	97.15	1
0	67004	97.15	1
0	67005	97.15	1
0	67058	97.2	1
0	67059	97.2	1
0	67060	97.2	1
0	67061	97.2	1
0	67062	97.2	1
0	67063	97.2	1
0	67064	97.2	1
0	67065	97.2	1
0	67109	97.25	1
0	67110	97.25	1
0	67111	97.25	1
0	67112	97.25	1
0	67129	97.3	1
0	67130	97.3	1
0	67131	97.3	1
0	67132	97.3	1
0	67133	97.3	1
0	67134	97.3	1
0	67135	97.3	1
0	67136	97.3	1
0	67180	97.35	1
0	67181	97.35	1
0	67182	97.35	1
0	67183	97.35	1
0	67200	97.4	1
0	67201	97.4	1
0	67202	97.4	1
0	67203	97.4	1
0	67204	97.4	1
0	67205	97.4	1
0	67206	97.4	1
0	67207	97.4	1
0	67268	97.45	1
0	67269	97.45	1
0	67270	97.45	1
0	67271	97.45	1
0	67288	97.5	1
0	67289	97.5	1
0	67290	97.5	1
0	67291	97.5	1
0	67292	97.5	1
0	67293	97.5	1
0	67294	97.5	1
0	67295	97.5	1
0	67320	97.55	1
0	67321	97.55	1
0	67322	97.55	1
0	67323	97.55	1
0	67340	97.6	1
0	67341	97.6	1
0	67342	97.6	1
0	67343	97.6	1
0	67344	97.6	1
0	67345	97.6	1
0	67346	97.6	1
0	67347	97.6	1
0	67372	97.65	1
0	67373	97.65	1
0	67374	97.65	1
0	67375	97.65	1
0	67392	97.7	1
0	67393	97.7	1
0	67394	97.7	1
0	67395	97.7	1
0	67396	97.7	1
0	67397	97.7	1
0	67398	97.7	1
0	67399	97.7	1
0	67443	97.75	1
0	67444	97.75	1
0	67445	97.75	1
0	67446	97.75	1
0	67482	97.8	1
0	67483	97.8	1
0	67484	97.8	1
0	67485	97.8	1
0	67486	97.8	1
0	67487	97.8	1
0	67488	97.8	1
0	67489	97.8	1
0	67514	97.85	1
0	67515	97.85	1
0	67516	97.85	1
0	67517	97.85	1
0	67549	97.9	1
0	67550	97.9	1
0	67551	97.9	1
0	67552	97.9	1
0	67553	97.9	1
0	67554	97.9	1
0	67555	97.9	1
0	67556	97.9	1
0	67581	97.95	1
0	67582	97.95	1
0	67583	97.95	1
0	67584	97.95	1
0	67620	98	1
0	67621	98	1
0	67622	98	1
0	67623	98	1
0	67624	98	1
0	67625	98	1
0	67626	98	1
0	67627	98	1
0	67652	98.05	1
0	67653	98.05	1
0	67654	98.05	1
0	67655	98.05	1
0	67676	98.1	1
0	67677	98.1	1
0	67678	98.1	1
0	67679	98.1	1
0	67680	98.1	1
0	67681	98.1	1
0	67682	98.1	1
0	67683	98.1	1
0	67714	98.15	1
0	67715	98.15	1
0	67716	98.15	1
0	67717	98.15	1
0	67734	98.2	1
0	67735	98.2	1
0	67736	98.2	1
0	67737	98.2	1
0	67738	98.2	1
0	67739	98.2	1
0	67740	98.2	1
0	67741	98.2	1
0	67766	98.25	1
0	67767	98.25	1
0	67768	98.25	1
0	67769	98.25	1
0	67822	98.3	1
0	67823	98.3	1
0	67824	98.3	1
0	67825	98.3	1
0	67826	98.3	1
0	67827	98.3	1
0	67828	98.3	1
0	67829	98.3	1
0	67873	98.35	1
0	67874	98.35	1
0	67875	98.35	1
0	67876	98.35	1
0	67893	98.4	1
0	67894	98.4	1
0	67895	98.4	1
0	67896	98.4	1
0	67897	98.4	1
0	67898	98.4	1
0	67899	98.4	1
0	67900	98.4	1
0	67944	98.45	1
0	67945	98.45	1
0	67946	98.45	1
0	67947	98.45	1
0	67964	98.5	1
0	67965	98.5	1
0	67966	98.5	1
0	67967	98.5	1
0	67968	98.5	1
0	67969	98.5	1
0	67970	98.5	1
0	67971	98.5	1
0	68032	98.55	1
0	68033	98.55	1
0	68034	98.55	1
0	68035	98.55	1
0	68052	98.6	1
0	68053	98.6	1
0	68054	98.6	1
0	68055	98.6	1
0	68056	98.6	1
0	68057	98.6	1
0	68058	98.6	1
0	68059	98.6	1
0	68084	98.65	1
0	68085	98.65	1
0	68086	98.65	1
0	68087	98.65	1
0	68104	98.7	1
0	68105	98.7	1
0	68106	98.7	1
0	68107	98.7	1
0	68108	98.7	1
0	68109	98.7	1
0	68110	98.7	1
0	68111	98.7	1
0	68136	98.75	1
0	68137	98.75	1
0	68138	98.75	1
0	68139	98.75	1
0	68156	98.8	1
0	68157	98.8	1
0	68158	98.8	1
0	68159	98.8	1
0	68160	98.8	1
0	68161	98.8	1
0	68162	98.8	1
0	68163	98.8	1
0	68207	98.85	1
0	68208	98.85	1
0	68209	98.85	1
0	68210	98.85	1
0	68246	98.9	1
0	68247	98.9	1
0	68248	98.9	1
0	68249	98.9	1
0	68250	98.9	1
0	68251	98.9	1
0	68252	98.9	1
0	68253	98.9	1
0	68278	98.95	1
0	68279	98.95	1
0	68280	98.95	1
0	68281	98.95	1
0	68303	99	1
0	68304	99	1
0	68305	99	1
0	68306	99	1
0	68307	99	1
0	68308	99	1
0	68309	99	1
0	68310	99	1
0	68335	99.05	1
0	68336	99.05	1
0	68337	99.05	1
0	68338	99.05	1
0	68378	99.1	1
0	68379	99.1	1
0	68380	99.1	1
0	68381	99.1	1
0	68382	99.1	1
0	68383	99.1	1
0	68384	99.1	1
0	68385	99.1	1
0	68416	99.15	1
0	68417	99.15	1
0	68418	99.15	1
0	68419	99.15	1
0	68436	99.2	1
0	68437	99.2	1
0	68438	99.2	1
0	68439	99.2	1
0	68440	99.2	1
0	68441	99.2	1
0	68442	99.2	1
0	68443	99.2	1
0	68468	99.25	1
0	68469	99.25	1
0	68470	99.25	1
0	68471	99.25	1
0	68488	99.3	1
0	68489	99.3	1
0	68490	99.3	1
0	68491	99.3	1
0	68492	99.3	1
0	68493	99.3	1
0	68494	99.3	1
0	68495	99.3	1
0	68520	99.35	1
0	68521	99.35	1
0	68522	99.35	1
0	68523	99.35	1
0	68540	99.4	1
0	68541	99.4	1
0	68542	99.4	1
0	68543	99.4	1
0	68544	99.4	1
0	68545	99.4	1
0	68546	99.4	1
0	68547	99.4	1
0	68591	99.45	1
0	68592	99.45	1
0	68593	99.45	1
0	68594	99.45	1
0	68611	99.5	1
0	68612	99.5	1
0	68613	99.5	1
0	68614	99.5	1
0	68615	99.5	1
0	68616	99.5	1
0	68617	99.5	1
0	68618	99.5	1
0	68643	99.55	1
0	68644	99.55	1
0	68645	99.55	1
0	68646	99.55	1
0	68663	99.6	1
0	68664	99.6	1
0	68665	99.6	1
0	68666	99.6	1
0	68667	99.6	1
0	68668	99.6	1
0	68669	99.6	1
0	68670	99.6	1
0	68731	99.65	1
0	68732	99.65	1
0	68733	99.65	1
0	68734	99.65	1
0	68751	99.7	1
0	68752	99.7	1
0	68753	99.7	1
0	68754	99.7	1
0	68755	99.7	1
0	68756	99.7	1
0	68757	99.7	1
0	68758	99.7	1
0	68783	99.75	1
0	68784	99.75	1
0	68785	99.75	1
0	68786	99.75	1
0	68803	99.8	1
0	68804	99.8	1
0	68805	99.8	1
0	68806	99.8	1
0	68807	99.8	1
0	68808	99.8	1
0	68809	99.8	1
0	68810	99.8	1
0	68835	99.85	1
0	68836	99.85	1
0	68837	99.85	1
0	68838	99.85	1
0	68855	99.9	1
0	68856	99.9	1
0	68857	99.9	1
0	68858	99.9	1
0	68859	99.9	1
0	68860	99.9	1
0	68861	99.9	1
0	68862	99.9	1
0	68887	99.95	1
0	68888	99.95	1
0	68889	99.95	1
0	68890	99.95	1
0	68927	100	1
0	68928	100	1
0	68929	100	1
0	68930	100	1
0	68931	100	1
0	68932	100	1
0	68933	100	1
0	68934	100	1
1	62032	90.1	-nan
1	62033	90.1	-nan
1	62034	90.1	-nan
1	62035	90.1	-nan
1	62723	91.1	-nan
1	62724	91.1	-nan
1	62725	91.1	-nan
1	62726	91.1	-nan
1	63442	92.1	-nan
1	63443	92.1	-nan
1	63444	92.1	-nan
1	63445	92.1	-nan
1	64172	93.1	-nan
1	64173	93.1	-nan
1	64174	93.1	-nan
1	64175	93.1	-nan
1	64869	94.1	-nan
1	64870	94.1	-nan
1	64871	94.1	-nan
1	64872	94.1	-nan
1	65567	95.1	-nan
1	65568	95.1	-nan
1	65569	95.1	-nan
1	65570	95.1	-nan
1	66260	96.1	-nan
1	66261	96.1	-nan
1	66262	96.1	-nan
1	66263	96.1	-nan
1	66960	97.1	-nan
1	66961	97.1	-nan
1	66962	97.1	-nan
1	66963	97.1	-nan
1	67672	98.1	-nan
1	67673	98.1	-nan
1	67674	98.1	-nan
1	67675	98.1	-nan
1	68374	99.1	-nan
1	68375	99.1	-nan
1	68376	99.1	-nan
1	68377	99.1	-nan
2	61980	90.033626728067	30879
2	62191	90.283409109974	31020
2	62385	90.583626728067	31161
2	62400	90.597466728067	31302
2	62791	91.133626728067	31443
2	62989	91.383409109974	31584
2	63562	92.233626728067	31725
2	63757	92.483409109974	31866
2	63949	92.783626728067	32007
2	64344	93.333626728067	32148
2	64542	93.583409109974	32289
2	64937	94.133409109974	32430
2	65129	94.433626728067	32571
2	65706	95.233409109974	32712
2	66250	96.083626728067	32853
2	66470	96.333409109974	32994
2	66662	96.633626728067	33135
2	67048	97.183626728067	33276
2	67258	97.433409109974	33417
2	67812	98.283626728067	33558
2	68022	98.533409109974	33699
2	68721	99.633409109974	33840
3	61980	90.033626728067	30879
3	62191	90.283409109974	31020
3	62385	90.583626728067	31161
3	62400	90.597466728067	31302
3	62791	91.133626728067	31443
3	62989	91.383409109974	31584
3	63562	92.233626728067	31725
3	63757	92.483409109974	31866
3	63949	92.783626728067	32007
3	64344	93.333626728067	32148
3	64542	93.583409109974	32289
3	64937	94.133409109974	32430
3	65129	94.433626728067	32571
3	65706	95.233409109974	32712
3	66250	96.083626728067	32853
3	66470	96.333409109974	32994
3	66662	96.633626728067	33135
3	67048	97.183626728067	33276
3	67258	97.433409109974	33417
3	67812	98.283626728067	33558
3	68022	98.533409109974	33699
3	68721	99.633409109974	33840

