version 2
run General-0-20190905-22:58:49-23324
attr configname General
attr datetime 20190905-22:58:49
attr experiment General
attr inifile SimV2.ini
attr iterationvars ""
attr iterationvarsf ""
attr measurement ""
attr network NetworkTormV2
attr processid 23324
attr repetition 0
attr replication #0
attr resultdir results
attr runnumber 0
attr seedset 0
param **.numNodes 2
param **.application.usedRNG 1
param **.application.dataGenerationInterval 1ms
param **.application.dataSizeInBytes 10
param **.application.ttl 999999s
param **application.destinationAddr "\"Wf:00:00:00:00:02\""
param **application.destinationBTAddr "\"Bt:00:00:00:00:02\""
param **application.nodesThatGen true
param **application.nodesGenMsg "\"0\""
param **application.startMultipleMsg true
param **application.numMultipleMsg 100
param **application.hopsListSize 50
param **.routingLayer "\"RoutingLayer\""
param **.routing.maximumCacheSize 5000byte
param **.routing.maximumHopCount 25
param **.routing.useTTL false
param **.neighboring.antiEntropyInterval 200ms
param **.neighboring.maximumRandomBackoffDuration 1s
param **.neighboring.delayPerDataMsg 0.1
param **neighboring.usedRNG 2
param **.neighboring.GWAddr "\"02:00:00:00:00:03\""
param **.neighboring.sendWifiFirst true
param **.wirelessIfc.wirelessRange 15m
param **.wirelessIfc.neighbourScanInterval 50ms
param **.wirelessIfc.bandwidthBitRate 100000bps
param **.wirelessIfc.wirelessHeaderSize 32byte
param **.wirelessIfc.minSSI -90
param **.bluetoothIfc.wirelessRange 15m
param **.bluetoothIfc.neighbourScanInterval 100ms
param **.bluetoothIfc.bandwidthBitRate 100000bps
param **.bluetoothIfc.wirelessHeaderSize 16byte
param **.bluetoothIfc.minSSI -90
param **.mobilityType "\"BonnMotionMobility\""
param **.mobility.traceFile "\"paths/Moves2.movements\""
param **.mobility.nodeId -1

vector 0 NetworkTormV2 neighbourhoodSize:vector ETV
attr source neighbourhoodSize
vector 1 NetworkTormV2 deliveryRatio:vector ETV
attr source sum(totalDataBytesReceived)/sum(totalDataBytesReceivableByAllNodes)
vector 2 NetworkTormV2 dataBytesReceivedSum:vector ETV
attr source sum(dataBytesReceived)
vector 3 NetworkTormV2 totalBytesReceivedSum:vector ETV
attr source sum(totalBytesReceived)
0	7	0.05	1
0	8	0.05	1
0	14	0.1	1
0	15	0.1	1
0	18	0.1	1
0	19	0.1	1
0	127	0.15	1
0	128	0.15	1
0	233	0.2	1
0	234	0.2	1
0	237	0.2	1
0	238	0.2	1
0	247	0.25	1
0	248	0.25	1
0	253	0.3	1
0	254	0.3	1
0	257	0.3	1
0	258	0.3	1
0	267	0.35	1
0	268	0.35	1
0	273	0.4	1
0	274	0.4	1
0	277	0.4	1
0	278	0.4	1
0	287	0.45	1
0	288	0.45	1
0	293	0.5	1
0	294	0.5	1
0	297	0.5	1
0	298	0.5	1
0	307	0.55	1
0	308	0.55	1
0	313	0.6	1
0	314	0.6	1
0	317	0.6	1
0	318	0.6	1
0	327	0.65	1
0	328	0.65	1
0	333	0.7	1
0	334	0.7	1
0	337	0.7	1
0	338	0.7	1
0	347	0.75	1
0	348	0.75	1
0	353	0.8	1
0	354	0.8	1
0	357	0.8	1
0	358	0.8	1
0	367	0.85	1
0	368	0.85	1
0	373	0.9	1
0	374	0.9	1
0	377	0.9	1
0	378	0.9	1
0	387	0.95	1
0	388	0.95	1
0	393	1	1
0	394	1	1
0	397	1	1
0	398	1	1
0	407	1.05	1
0	408	1.05	1
0	413	1.1	1
0	414	1.1	1
0	417	1.1	1
0	418	1.1	1
0	723	1.15	1
0	724	1.15	1
0	819	1.2	1
0	820	1.2	1
0	823	1.2	1
0	824	1.2	1
0	923	1.25	1
0	924	1.25	1
0	1025	1.3	1
0	1026	1.3	1
0	1029	1.3	1
0	1030	1.3	1
0	1129	1.35	1
0	1130	1.35	1
0	1236	1.4	1
0	1237	1.4	1
0	1240	1.4	1
0	1241	1.4	1
0	1344	1.45	1
0	1345	1.45	1
0	1440	1.5	1
0	1441	1.5	1
0	1444	1.5	1
0	1445	1.5	1
0	1550	1.55	1
0	1551	1.55	1
0	1648	1.6	1
0	1649	1.6	1
0	1652	1.6	1
0	1653	1.6	1
0	1752	1.65	1
0	1753	1.65	1
0	1798	1.7	1
0	1799	1.7	1
0	1802	1.7	1
0	1803	1.7	1
0	1812	1.75	1
0	1813	1.75	1
0	1818	1.8	1
0	1819	1.8	1
0	1822	1.8	1
0	1823	1.8	1
0	1845	1.85	1
0	1846	1.85	1
0	1851	1.9	1
0	1852	1.9	1
0	1855	1.9	1
0	1856	1.9	1
0	1865	1.95	1
0	1866	1.95	1
0	1884	2	1
0	1885	2	1
0	1888	2	1
0	1889	2	1
0	1898	2.05	1
0	1899	2.05	1
0	1904	2.1	1
0	1905	2.1	1
0	1908	2.1	1
0	1909	2.1	1
0	1931	2.15	1
0	1932	2.15	1
0	1937	2.2	1
0	1938	2.2	1
0	1941	2.2	1
0	1942	2.2	1
0	1951	2.25	1
0	1952	2.25	1
0	1970	2.3	1
0	1971	2.3	1
0	1974	2.3	1
0	1975	2.3	1
0	1984	2.35	1
0	1985	2.35	1
0	1990	2.4	1
0	1991	2.4	1
0	1994	2.4	1
0	1995	2.4	1
0	2017	2.45	1
0	2018	2.45	1
0	2023	2.5	1
0	2024	2.5	1
0	2027	2.5	1
0	2028	2.5	1
0	2037	2.55	1
0	2038	2.55	1
0	2056	2.6	1
0	2057	2.6	1
0	2060	2.6	1
0	2061	2.6	1
0	2070	2.65	1
0	2071	2.65	1
0	2076	2.7	1
0	2077	2.7	1
0	2080	2.7	1
0	2081	2.7	1
0	2103	2.75	1
0	2104	2.75	1
0	2109	2.8	1
0	2110	2.8	1
0	2113	2.8	1
0	2114	2.8	1
0	2123	2.85	1
0	2124	2.85	1
0	2142	2.9	1
0	2143	2.9	1
0	2146	2.9	1
0	2147	2.9	1
0	2156	2.95	1
0	2157	2.95	1
0	2162	3	1
0	2163	3	1
0	2166	3	1
0	2167	3	1
0	2189	3.05	1
0	2190	3.05	1
0	2195	3.1	1
0	2196	3.1	1
0	2199	3.1	1
0	2200	3.1	1
0	2209	3.15	1
0	2210	3.15	1
0	2228	3.2	1
0	2229	3.2	1
0	2232	3.2	1
0	2233	3.2	1
0	2242	3.25	1
0	2243	3.25	1
0	2248	3.3	1
0	2249	3.3	1
0	2252	3.3	1
0	2253	3.3	1
0	2275	3.35	1
0	2276	3.35	1
0	2281	3.4	1
0	2282	3.4	1
0	2285	3.4	1
0	2286	3.4	1
0	2295	3.45	1
0	2296	3.45	1
0	2314	3.5	1
0	2315	3.5	1
0	2318	3.5	1
0	2319	3.5	1
0	2328	3.55	1
0	2329	3.55	1
0	2334	3.6	1
0	2335	3.6	1
0	2338	3.6	1
0	2339	3.6	1
0	2361	3.65	1
0	2362	3.65	1
0	2367	3.7	1
0	2368	3.7	1
0	2371	3.7	1
0	2372	3.7	1
0	2381	3.75	1
0	2382	3.75	1
0	2400	3.8	1
0	2401	3.8	1
0	2404	3.8	1
0	2405	3.8	1
0	2414	3.85	1
0	2415	3.85	1
0	2420	3.9	1
0	2421	3.9	1
0	2424	3.9	1
0	2425	3.9	1
0	2447	3.95	1
0	2448	3.95	1
0	2453	4	1
0	2454	4	1
0	2457	4	1
0	2458	4	1
0	2467	4.05	0
0	2468	4.05	0
0	2469	4.1	0
0	2470	4.1	0
0	2473	4.1	0
0	2474	4.1	0
0	2475	4.15	0
0	2476	4.15	0
0	2477	4.2	0
0	2478	4.2	0
0	2481	4.2	0
0	2482	4.2	0
0	2483	4.25	0
0	2484	4.25	0
0	2485	4.3	0
0	2486	4.3	0
0	2489	4.3	0
0	2490	4.3	0
0	2491	4.35	0
0	2492	4.35	0
0	2493	4.4	0
0	2494	4.4	0
0	2497	4.4	0
0	2498	4.4	0
0	2499	4.45	0
0	2500	4.45	0
0	2501	4.5	0
0	2502	4.5	0
0	2505	4.5	0
0	2506	4.5	0
0	2507	4.55	0
0	2508	4.55	0
0	2509	4.6	0
0	2510	4.6	0
0	2513	4.6	0
0	2514	4.6	0
0	2515	4.65	0
0	2516	4.65	0
0	2517	4.7	0
0	2518	4.7	0
0	2521	4.7	0
0	2522	4.7	0
0	2523	4.75	0
0	2524	4.75	0
0	2525	4.8	0
0	2526	4.8	0
0	2529	4.8	0
0	2530	4.8	0
0	2531	4.85	0
0	2532	4.85	0
0	2533	4.9	0
0	2534	4.9	0
0	2537	4.9	0
0	2538	4.9	0
0	2539	4.95	0
0	2540	4.95	0
0	2541	5	0
0	2542	5	0
0	2545	5	0
0	2546	5	0
0	2547	5.05	0
0	2548	5.05	0
0	2549	5.1	0
0	2550	5.1	0
0	2553	5.1	0
0	2554	5.1	0
0	2555	5.15	0
0	2556	5.15	0
0	2557	5.2	0
0	2558	5.2	0
0	2561	5.2	0
0	2562	5.2	0
0	2563	5.25	0
0	2564	5.25	0
0	2565	5.3	0
0	2566	5.3	0
0	2569	5.3	0
0	2570	5.3	0
0	2571	5.35	0
0	2572	5.35	0
0	2573	5.4	0
0	2574	5.4	0
0	2577	5.4	0
0	2578	5.4	0
0	2579	5.45	0
0	2580	5.45	0
0	2581	5.5	0
0	2582	5.5	0
0	2585	5.5	0
0	2586	5.5	0
0	2587	5.55	0
0	2588	5.55	0
0	2589	5.6	0
0	2590	5.6	0
0	2593	5.6	0
0	2594	5.6	0
0	2595	5.65	0
0	2596	5.65	0
0	2597	5.7	0
0	2598	5.7	0
0	2601	5.7	0
0	2602	5.7	0
0	2603	5.75	0
0	2604	5.75	0
0	2605	5.8	0
0	2606	5.8	0
0	2609	5.8	0
0	2610	5.8	0
0	2611	5.85	0
0	2612	5.85	0
0	2613	5.9	0
0	2614	5.9	0
0	2617	5.9	0
0	2618	5.9	0
0	2619	5.95	0
0	2620	5.95	0
0	2621	6	0
0	2622	6	0
0	2625	6	0
0	2626	6	0
0	2627	6.05	0
0	2628	6.05	0
0	2629	6.1	0
0	2630	6.1	0
0	2633	6.1	0
0	2634	6.1	0
0	2635	6.15	0
0	2636	6.15	0
0	2637	6.2	0
0	2638	6.2	0
0	2641	6.2	0
0	2642	6.2	0
0	2643	6.25	0
0	2644	6.25	0
0	2645	6.3	0
0	2646	6.3	0
0	2649	6.3	0
0	2650	6.3	0
0	2651	6.35	0
0	2652	6.35	0
0	2653	6.4	0
0	2654	6.4	0
0	2657	6.4	0
0	2658	6.4	0
0	2659	6.45	0
0	2660	6.45	0
0	2661	6.5	0
0	2662	6.5	0
0	2665	6.5	0
0	2666	6.5	0
0	2667	6.55	0
0	2668	6.55	0
0	2669	6.6	0
0	2670	6.6	0
0	2673	6.6	0
0	2674	6.6	0
0	2675	6.65	0
0	2676	6.65	0
0	2677	6.7	0
0	2678	6.7	0
0	2681	6.7	0
0	2682	6.7	0
0	2683	6.75	0
0	2684	6.75	0
0	2685	6.8	0
0	2686	6.8	0
0	2689	6.8	0
0	2690	6.8	0
0	2691	6.85	0
0	2692	6.85	0
0	2693	6.9	0
0	2694	6.9	0
0	2697	6.9	0
0	2698	6.9	0
0	2699	6.95	0
0	2700	6.95	0
0	2701	7	1
0	2702	7	1
0	2705	7	1
0	2706	7	1
0	2728	7.05	1
0	2729	7.05	1
0	2734	7.1	1
0	2735	7.1	1
0	2738	7.1	1
0	2739	7.1	1
0	2748	7.15	1
0	2749	7.15	1
0	2767	7.2	1
0	2768	7.2	1
0	2771	7.2	1
0	2772	7.2	1
0	2781	7.25	1
0	2782	7.25	1
0	2787	7.3	1
0	2788	7.3	1
0	2791	7.3	1
0	2792	7.3	1
0	2814	7.35	1
0	2815	7.35	1
0	2820	7.4	1
0	2821	7.4	1
0	2824	7.4	1
0	2825	7.4	1
0	2834	7.45	1
0	2835	7.45	1
0	2853	7.5	1
0	2854	7.5	1
0	2857	7.5	1
0	2858	7.5	1
0	2867	7.55	1
0	2868	7.55	1
0	2873	7.6	1
0	2874	7.6	1
0	2877	7.6	1
0	2878	7.6	1
0	2900	7.65	1
0	2901	7.65	1
0	2906	7.7	1
0	2907	7.7	1
0	2910	7.7	1
0	2911	7.7	1
0	2920	7.75	1
0	2921	7.75	1
0	2939	7.8	1
0	2940	7.8	1
0	2943	7.8	1
0	2944	7.8	1
0	2953	7.85	1
0	2954	7.85	1
0	2959	7.9	1
0	2960	7.9	1
0	2963	7.9	1
0	2964	7.9	1
0	2986	7.95	1
0	2987	7.95	1
0	2992	8	1
0	2993	8	1
0	2996	8	1
0	2997	8	1
0	3006	8.05	1
0	3007	8.05	1
0	3025	8.1	1
0	3026	8.1	1
0	3029	8.1	1
0	3030	8.1	1
0	3039	8.15	1
0	3040	8.15	1
0	3045	8.2	1
0	3046	8.2	1
0	3049	8.2	1
0	3050	8.2	1
0	3072	8.25	1
0	3073	8.25	1
0	3078	8.3	1
0	3079	8.3	1
0	3082	8.3	1
0	3083	8.3	1
0	3092	8.35	1
0	3093	8.35	1
0	3111	8.4	1
0	3112	8.4	1
0	3115	8.4	1
0	3116	8.4	1
0	3125	8.45	1
0	3126	8.45	1
0	3131	8.5	1
0	3132	8.5	1
0	3135	8.5	1
0	3136	8.5	1
0	3158	8.55	1
0	3159	8.55	1
0	3164	8.6	1
0	3165	8.6	1
0	3168	8.6	1
0	3169	8.6	1
0	3178	8.65	1
0	3179	8.65	1
0	3197	8.7	1
0	3198	8.7	1
0	3201	8.7	1
0	3202	8.7	1
0	3211	8.75	1
0	3212	8.75	1
0	3217	8.8	1
0	3218	8.8	1
0	3221	8.8	1
0	3222	8.8	1
0	3244	8.85	1
0	3245	8.85	1
0	3250	8.9	1
0	3251	8.9	1
0	3254	8.9	1
0	3255	8.9	1
0	3264	8.95	1
0	3265	8.95	1
0	3283	9	1
0	3284	9	1
0	3287	9	1
0	3288	9	1
0	3297	9.05	1
0	3298	9.05	1
0	3303	9.1	1
0	3304	9.1	1
0	3307	9.1	1
0	3308	9.1	1
0	3330	9.15	1
0	3331	9.15	1
0	3336	9.2	1
0	3337	9.2	1
0	3340	9.2	1
0	3341	9.2	1
0	3350	9.25	1
0	3351	9.25	1
0	3369	9.3	1
0	3370	9.3	1
0	3373	9.3	1
0	3374	9.3	1
0	3383	9.35	1
0	3384	9.35	1
0	3389	9.4	1
0	3390	9.4	1
0	3393	9.4	1
0	3394	9.4	1
0	3416	9.45	1
0	3417	9.45	1
0	3422	9.5	1
0	3423	9.5	1
0	3426	9.5	1
0	3427	9.5	1
0	3436	9.55	1
0	3437	9.55	1
0	3455	9.6	1
0	3456	9.6	1
0	3459	9.6	1
0	3460	9.6	1
0	3469	9.65	1
0	3470	9.65	1
0	3475	9.7	1
0	3476	9.7	1
0	3479	9.7	1
0	3480	9.7	1
0	3502	9.75	1
0	3503	9.75	1
0	3508	9.8	1
0	3509	9.8	1
0	3512	9.8	1
0	3513	9.8	1
0	3522	9.85	1
0	3523	9.85	1
0	3541	9.9	1
0	3542	9.9	1
0	3545	9.9	1
0	3546	9.9	1
0	3555	9.95	1
0	3556	9.95	1
0	3561	10	1
0	3562	10	1
0	3565	10	1
0	3566	10	1
1	13	0.1	-nan
1	29	0.101	-nan
1	31	0.102	-nan
1	33	0.103	-nan
1	35	0.104	-nan
1	37	0.105	-nan
1	39	0.106	-nan
1	41	0.107	-nan
1	43	0.108	-nan
1	45	0.109	-nan
1	47	0.11	-nan
1	49	0.111	-nan
1	51	0.112	-nan
1	53	0.113	-nan
1	55	0.114	-nan
1	57	0.115	-nan
1	59	0.116	-nan
1	61	0.117	-nan
1	63	0.118	-nan
1	65	0.119	-nan
1	67	0.12	-nan
1	69	0.121	-nan
1	71	0.122	-nan
1	73	0.123	-nan
1	75	0.124	-nan
1	77	0.125	-nan
1	79	0.126	-nan
1	81	0.127	-nan
1	83	0.128	-nan
1	85	0.129	-nan
1	87	0.13	-nan
1	89	0.131	-nan
1	91	0.132	-nan
1	93	0.133	-nan
1	95	0.134	-nan
1	97	0.135	-nan
1	99	0.136	-nan
1	101	0.137	-nan
1	103	0.138	-nan
1	105	0.139	-nan
1	107	0.14	-nan
1	109	0.141	-nan
1	111	0.142	-nan
1	113	0.143	-nan
1	115	0.144	-nan
1	117	0.145	-nan
1	119	0.146	-nan
1	121	0.147	-nan
1	123	0.148	-nan
1	125	0.149	-nan
1	129	0.15	-nan
1	135	0.151	-nan
1	137	0.152	-nan
1	139	0.153	-nan
1	141	0.154	-nan
1	143	0.155	-nan
1	145	0.156	-nan
1	147	0.157	-nan
1	149	0.158	-nan
1	151	0.159	-nan
1	153	0.16	-nan
1	155	0.161	-nan
1	157	0.162	-nan
1	159	0.163	-nan
1	161	0.164	-nan
1	163	0.165	-nan
1	165	0.166	-nan
1	167	0.167	-nan
1	169	0.168	-nan
1	171	0.169	-nan
1	173	0.17	-nan
1	175	0.171	-nan
1	177	0.172	-nan
1	179	0.173	-nan
1	181	0.174	-nan
1	183	0.175	-nan
1	185	0.176	-nan
1	187	0.177	-nan
1	189	0.178	-nan
1	191	0.179	-nan
1	193	0.18	-nan
1	195	0.181	-nan
1	197	0.182	-nan
1	199	0.183	-nan
1	201	0.184	-nan
1	203	0.185	-nan
1	205	0.186	-nan
1	207	0.187	-nan
1	209	0.188	-nan
1	211	0.189	-nan
1	213	0.19	-nan
1	215	0.191	-nan
1	217	0.192	-nan
1	219	0.193	-nan
1	221	0.194	-nan
1	223	0.195	-nan
1	225	0.196	-nan
1	227	0.197	-nan
1	229	0.198	-nan
1	231	0.199	-nan
2	656	1.11456	36
2	666	1.12	72
2	676	1.12544	108
2	686	1.13088	144
2	696	1.13632	180
2	706	1.14176	216
2	716	1.1472	252
2	732	1.15264	288
2	742	1.15808	324
2	752	1.16352	360
2	762	1.16896	396
2	772	1.1744	432
2	782	1.17984	468
2	792	1.18528	504
2	802	1.19072	540
2	812	1.19616	576
2	836	1.2016	612
2	846	1.20704	648
2	856	1.21248	684
2	866	1.21792	720
2	876	1.22336	756
2	886	1.2288	792
2	896	1.23424	828
2	906	1.23968	864
2	916	1.24512	900
2	932	1.25056	936
2	942	1.256	972
2	952	1.26144	1008
2	962	1.26688	1044
2	972	1.27232	1080
2	982	1.27776	1116
2	992	1.2832	1152
2	1002	1.28864	1188
2	1012	1.29408	1224
2	1022	1.29952	1260
2	1046	1.30496	1296
2	1056	1.3104	1332
2	1066	1.31584	1368
2	1076	1.32128	1404
2	1086	1.32672	1440
2	1096	1.33216	1476
2	1106	1.3376	1512
2	1116	1.34304	1548
2	1126	1.34848	1584
2	1146	1.35392	1620
2	1163	1.35936	1656
2	1173	1.3648	1692
2	1183	1.37024	1728
2	1193	1.37568	1764
2	1203	1.38112	1800
2	1213	1.38656	1836
2	1223	1.392	1872
2	1233	1.39744	1908
2	1257	1.40288	1944
2	1267	1.40832	1980
2	1277	1.41376	2016
2	1287	1.4192	2052
2	1297	1.42464	2088
2	1307	1.43008	2124
2	1317	1.43552	2160
2	1327	1.44096	2196
2	1337	1.4464	2232
2	1353	1.45184	2268
2	1363	1.45728	2304
2	1373	1.46272	2340
2	1383	1.46816	2376
2	1393	1.4736	2412
2	1403	1.47904	2448
2	1413	1.48448	2484
2	1423	1.48992	2520
2	1433	1.49536	2556
2	1457	1.5008	2592
2	1467	1.50624	2628
2	1477	1.51168	2664
2	1487	1.51712	2700
2	1497	1.52256	2736
2	1507	1.528	2772
2	1517	1.53344	2808
2	1527	1.53888	2844
2	1537	1.54432	2880
2	1547	1.54976	2916
2	1565	1.5552	2952
2	1575	1.56064	2988
2	1585	1.56608	3024
2	1595	1.57152	3060
2	1605	1.57696	3096
2	1615	1.5824	3132
2	1625	1.58784	3168
2	1635	1.59328	3204
2	1645	1.59872	3240
2	1669	1.60416	3276
2	1679	1.6096	3312
2	1689	1.61504	3348
2	1699	1.62048	3384
2	1709	1.62592	3420
2	1719	1.63136	3456
2	1729	1.6368	3492
2	1739	1.64224	3528
2	1749	1.64768	3564
2	1765	1.65312	3600
3	656	1.11456	36
3	666	1.12	72
3	676	1.12544	108
3	686	1.13088	144
3	696	1.13632	180
3	706	1.14176	216
3	716	1.1472	252
3	732	1.15264	288
3	742	1.15808	324
3	752	1.16352	360
3	762	1.16896	396
3	772	1.1744	432
3	782	1.17984	468
3	792	1.18528	504
3	802	1.19072	540
3	812	1.19616	576
3	836	1.2016	612
3	846	1.20704	648
3	856	1.21248	684
3	866	1.21792	720
3	876	1.22336	756
3	886	1.2288	792
3	896	1.23424	828
3	906	1.23968	864
3	916	1.24512	900
3	932	1.25056	936
3	942	1.256	972
3	952	1.26144	1008
3	962	1.26688	1044
3	972	1.27232	1080
3	982	1.27776	1116
3	992	1.2832	1152
3	1002	1.28864	1188
3	1012	1.29408	1224
3	1022	1.29952	1260
3	1046	1.30496	1296
3	1056	1.3104	1332
3	1066	1.31584	1368
3	1076	1.32128	1404
3	1086	1.32672	1440
3	1096	1.33216	1476
3	1106	1.3376	1512
3	1116	1.34304	1548
3	1126	1.34848	1584
3	1146	1.35392	1620
3	1163	1.35936	1656
3	1173	1.3648	1692
3	1183	1.37024	1728
3	1193	1.37568	1764
3	1203	1.38112	1800
3	1213	1.38656	1836
3	1223	1.392	1872
3	1233	1.39744	1908
3	1257	1.40288	1944
3	1267	1.40832	1980
3	1277	1.41376	2016
3	1287	1.4192	2052
3	1297	1.42464	2088
3	1307	1.43008	2124
3	1317	1.43552	2160
3	1327	1.44096	2196
3	1337	1.4464	2232
3	1353	1.45184	2268
3	1363	1.45728	2304
3	1373	1.46272	2340
3	1383	1.46816	2376
3	1393	1.4736	2412
3	1403	1.47904	2448
3	1413	1.48448	2484
3	1423	1.48992	2520
3	1433	1.49536	2556
3	1457	1.5008	2592
3	1467	1.50624	2628
3	1477	1.51168	2664
3	1487	1.51712	2700
3	1497	1.52256	2736
3	1507	1.528	2772
3	1517	1.53344	2808
3	1527	1.53888	2844
3	1537	1.54432	2880
3	1547	1.54976	2916
3	1565	1.5552	2952
3	1575	1.56064	2988
3	1585	1.56608	3024
3	1595	1.57152	3060
3	1605	1.57696	3096
3	1615	1.5824	3132
3	1625	1.58784	3168
3	1635	1.59328	3204
3	1645	1.59872	3240
3	1669	1.60416	3276
3	1679	1.6096	3312
3	1689	1.61504	3348
3	1699	1.62048	3384
3	1709	1.62592	3420
3	1719	1.63136	3456
3	1729	1.6368	3492
3	1739	1.64224	3528
3	1749	1.64768	3564
3	1765	1.65312	3600

