version 2
run Moves5-0-20190905-22:58:43-23324
attr configname Moves5
attr datetime 20190905-22:58:43
attr experiment Moves5
attr inifile SimV2.ini
attr iterationvars ""
attr iterationvarsf ""
attr measurement ""
attr network NetworkTormV2
attr processid 23324
attr repetition 0
attr replication #0
attr resultdir results
attr runnumber 0
attr seedset 0
param **.mobility.traceFile "\"paths/Moves5.movements\""
param **.numNodes 2
param **.application.usedRNG 1
param **.application.dataGenerationInterval 1ms
param **.application.dataSizeInBytes 10
param **.application.ttl 999999s
param **application.destinationAddr "\"Wf:00:00:00:00:02\""
param **application.destinationBTAddr "\"Bt:00:00:00:00:02\""
param **application.nodesThatGen true
param **application.nodesGenMsg "\"0\""
param **application.startMultipleMsg true
param **application.numMultipleMsg 100
param **application.hopsListSize 50
param **.routingLayer "\"RoutingLayer\""
param **.routing.maximumCacheSize 5000byte
param **.routing.maximumHopCount 25
param **.routing.useTTL false
param **.neighboring.antiEntropyInterval 200ms
param **.neighboring.maximumRandomBackoffDuration 1s
param **.neighboring.delayPerDataMsg 0.1
param **neighboring.usedRNG 2
param **.neighboring.GWAddr "\"02:00:00:00:00:03\""
param **.neighboring.sendWifiFirst true
param **.wirelessIfc.wirelessRange 15m
param **.wirelessIfc.neighbourScanInterval 50ms
param **.wirelessIfc.bandwidthBitRate 100000bps
param **.wirelessIfc.wirelessHeaderSize 32byte
param **.wirelessIfc.minSSI -90
param **.bluetoothIfc.wirelessRange 15m
param **.bluetoothIfc.neighbourScanInterval 100ms
param **.bluetoothIfc.bandwidthBitRate 100000bps
param **.bluetoothIfc.wirelessHeaderSize 16byte
param **.bluetoothIfc.minSSI -90
param **.mobilityType "\"BonnMotionMobility\""
param **.mobility.traceFile "\"paths/Moves2.movements\""
param **.mobility.nodeId -1

vector 0 NetworkTormV2 neighbourhoodSize:vector ETV
attr source neighbourhoodSize
vector 1 NetworkTormV2 deliveryRatio:vector ETV
attr source sum(totalDataBytesReceived)/sum(totalDataBytesReceivableByAllNodes)
vector 2 NetworkTormV2 dataBytesReceivedSum:vector ETV
attr source sum(dataBytesReceived)
vector 3 NetworkTormV2 totalBytesReceivedSum:vector ETV
attr source sum(totalBytesReceived)
0	7	0.05	1
0	8	0.05	1
0	14	0.1	1
0	15	0.1	1
0	17	0.1	1
0	18	0.1	1
0	126	0.15	1
0	127	0.15	1
0	232	0.2	1
0	233	0.2	1
0	235	0.2	1
0	236	0.2	1
0	245	0.25	1
0	246	0.25	1
0	251	0.3	1
0	252	0.3	1
0	254	0.3	1
0	255	0.3	1
0	264	0.35	1
0	265	0.35	1
0	270	0.4	1
0	271	0.4	1
0	273	0.4	1
0	274	0.4	1
0	283	0.45	1
0	284	0.45	1
0	289	0.5	1
0	290	0.5	1
0	292	0.5	1
0	293	0.5	1
0	302	0.55	1
0	303	0.55	1
0	308	0.6	1
0	309	0.6	1
0	311	0.6	1
0	312	0.6	1
0	321	0.65	1
0	322	0.65	1
0	327	0.7	1
0	328	0.7	1
0	330	0.7	1
0	331	0.7	1
0	340	0.75	1
0	341	0.75	1
0	346	0.8	1
0	347	0.8	1
0	349	0.8	1
0	350	0.8	1
0	359	0.85	1
0	360	0.85	1
0	365	0.9	1
0	366	0.9	1
0	368	0.9	1
0	369	0.9	1
0	378	0.95	1
0	379	0.95	1
0	384	1	1
0	385	1	1
0	387	1	1
0	388	1	1
0	397	1.05	1
0	398	1.05	1
0	403	1.1	1
0	404	1.1	1
0	406	1.1	1
0	407	1.1	1
0	712	1.15	1
0	713	1.15	1
0	808	1.2	1
0	809	1.2	1
0	811	1.2	1
0	812	1.2	1
0	911	1.25	1
0	912	1.25	1
0	1013	1.3	1
0	1014	1.3	1
0	1016	1.3	1
0	1017	1.3	1
0	1116	1.35	1
0	1117	1.35	1
0	1223	1.4	1
0	1224	1.4	1
0	1226	1.4	1
0	1227	1.4	1
0	1330	1.45	1
0	1331	1.45	1
0	1426	1.5	1
0	1427	1.5	1
0	1429	1.5	1
0	1430	1.5	1
0	1535	1.55	1
0	1536	1.55	1
0	1633	1.6	1
0	1634	1.6	1
0	1636	1.6	1
0	1637	1.6	1
0	1736	1.65	1
0	1737	1.65	1
0	1782	1.7	1
0	1783	1.7	1
0	1785	1.7	1
0	1786	1.7	1
0	1795	1.75	1
0	1796	1.75	1
0	1801	1.8	1
0	1802	1.8	1
0	1804	1.8	1
0	1805	1.8	1
0	1827	1.85	1
0	1828	1.85	1
0	1833	1.9	1
0	1834	1.9	1
0	1836	1.9	1
0	1837	1.9	1
0	1846	1.95	1
0	1847	1.95	1
0	1865	2	1
0	1866	2	1
0	1868	2	1
0	1869	2	1
0	1878	2.05	1
0	1879	2.05	1
0	1884	2.1	1
0	1885	2.1	1
0	1887	2.1	1
0	1888	2.1	1
0	1910	2.15	1
0	1911	2.15	1
0	1916	2.2	1
0	1917	2.2	1
0	1919	2.2	1
0	1920	2.2	1
0	1929	2.25	1
0	1930	2.25	1
0	1948	2.3	1
0	1949	2.3	1
0	1951	2.3	1
0	1952	2.3	1
0	1961	2.35	1
0	1962	2.35	1
0	1967	2.4	1
0	1968	2.4	1
0	1970	2.4	1
0	1971	2.4	1
0	1993	2.45	1
0	1994	2.45	1
0	1999	2.5	1
0	2000	2.5	1
0	2002	2.5	1
0	2003	2.5	1
0	2012	2.55	1
0	2013	2.55	1
0	2031	2.6	1
0	2032	2.6	1
0	2034	2.6	1
0	2035	2.6	1
0	2044	2.65	1
0	2045	2.65	1
0	2050	2.7	1
0	2051	2.7	1
0	2053	2.7	1
0	2054	2.7	1
0	2076	2.75	1
0	2077	2.75	1
0	2082	2.8	1
0	2083	2.8	1
0	2085	2.8	1
0	2086	2.8	1
0	2095	2.85	1
0	2096	2.85	1
0	2114	2.9	1
0	2115	2.9	1
0	2117	2.9	1
0	2118	2.9	1
0	2127	2.95	1
0	2128	2.95	1
0	2133	3	1
0	2134	3	1
0	2136	3	1
0	2137	3	1
0	2159	3.05	1
0	2160	3.05	1
0	2165	3.1	1
0	2166	3.1	1
0	2168	3.1	1
0	2169	3.1	1
0	2178	3.15	1
0	2179	3.15	1
0	2197	3.2	1
0	2198	3.2	1
0	2200	3.2	1
0	2201	3.2	1
0	2210	3.25	1
0	2211	3.25	1
0	2216	3.3	1
0	2217	3.3	1
0	2219	3.3	1
0	2220	3.3	1
0	2242	3.35	1
0	2243	3.35	1
0	2248	3.4	1
0	2249	3.4	1
0	2251	3.4	1
0	2252	3.4	1
0	2261	3.45	1
0	2262	3.45	1
0	2280	3.5	1
0	2281	3.5	1
0	2283	3.5	1
0	2284	3.5	1
0	2293	3.55	1
0	2294	3.55	1
0	2299	3.6	1
0	2300	3.6	1
0	2302	3.6	1
0	2303	3.6	1
0	2325	3.65	1
0	2326	3.65	1
0	2331	3.7	1
0	2332	3.7	1
0	2334	3.7	1
0	2335	3.7	1
0	2344	3.75	1
0	2345	3.75	1
0	2363	3.8	1
0	2364	3.8	1
0	2366	3.8	1
0	2367	3.8	1
0	2376	3.85	1
0	2377	3.85	1
0	2382	3.9	1
0	2383	3.9	1
0	2385	3.9	1
0	2386	3.9	1
0	2408	3.95	1
0	2409	3.95	1
0	2414	4	1
0	2415	4	1
0	2417	4	1
0	2418	4	1
0	2427	4.05	1
0	2428	4.05	1
0	2446	4.1	1
0	2447	4.1	1
0	2449	4.1	1
0	2450	4.1	1
0	2459	4.15	1
0	2460	4.15	1
0	2465	4.2	1
0	2466	4.2	1
0	2468	4.2	1
0	2469	4.2	1
0	2491	4.25	1
0	2492	4.25	1
0	2497	4.3	1
0	2498	4.3	1
0	2500	4.3	1
0	2501	4.3	1
0	2510	4.35	1
0	2511	4.35	1
0	2529	4.4	1
0	2530	4.4	1
0	2532	4.4	1
0	2533	4.4	1
0	2542	4.45	1
0	2543	4.45	1
0	2548	4.5	1
0	2549	4.5	1
0	2551	4.5	1
0	2552	4.5	1
0	2574	4.55	1
0	2575	4.55	1
0	2580	4.6	1
0	2581	4.6	1
0	2583	4.6	1
0	2584	4.6	1
0	2593	4.65	1
0	2594	4.65	1
0	2612	4.7	1
0	2613	4.7	1
0	2615	4.7	1
0	2616	4.7	1
0	2625	4.75	1
0	2626	4.75	1
0	2631	4.8	1
0	2632	4.8	1
0	2634	4.8	1
0	2635	4.8	1
0	2657	4.85	1
0	2658	4.85	1
0	2663	4.9	1
0	2664	4.9	1
0	2666	4.9	1
0	2667	4.9	1
0	2676	4.95	1
0	2677	4.95	1
0	2695	5	1
0	2696	5	1
0	2698	5	1
0	2699	5	1
0	2708	5.05	1
0	2709	5.05	1
0	2714	5.1	1
0	2715	5.1	1
0	2717	5.1	1
0	2718	5.1	1
0	2740	5.15	1
0	2741	5.15	1
0	2746	5.2	1
0	2747	5.2	1
0	2749	5.2	1
0	2750	5.2	1
0	2759	5.25	1
0	2760	5.25	1
0	2778	5.3	1
0	2779	5.3	1
0	2781	5.3	1
0	2782	5.3	1
0	2791	5.35	0
0	2792	5.35	0
0	2793	5.4	0
0	2794	5.4	0
0	2796	5.4	0
0	2797	5.4	0
0	2798	5.45	0
0	2799	5.45	0
0	2800	5.5	0
0	2801	5.5	0
0	2803	5.5	0
0	2804	5.5	0
0	2805	5.55	0
0	2806	5.55	0
0	2807	5.6	0
0	2808	5.6	0
0	2810	5.6	0
0	2811	5.6	0
0	2812	5.65	0
0	2813	5.65	0
0	2814	5.7	0
0	2815	5.7	0
0	2817	5.7	0
0	2818	5.7	0
0	2819	5.75	0
0	2820	5.75	0
0	2821	5.8	0
0	2822	5.8	0
0	2824	5.8	0
0	2825	5.8	0
0	2826	5.85	0
0	2827	5.85	0
0	2828	5.9	0
0	2829	5.9	0
0	2831	5.9	0
0	2832	5.9	0
0	2833	5.95	0
0	2834	5.95	0
0	2835	6	0
0	2836	6	0
0	2838	6	0
0	2839	6	0
0	2840	6.05	0
0	2841	6.05	0
0	2842	6.1	0
0	2843	6.1	0
0	2845	6.1	0
0	2846	6.1	0
0	2847	6.15	0
0	2848	6.15	0
0	2849	6.2	0
0	2850	6.2	0
0	2852	6.2	0
0	2853	6.2	0
0	2854	6.25	0
0	2855	6.25	0
0	2856	6.3	0
0	2857	6.3	0
0	2859	6.3	0
0	2860	6.3	0
0	2861	6.35	0
0	2862	6.35	0
0	2863	6.4	0
0	2864	6.4	0
0	2866	6.4	0
0	2867	6.4	0
0	2868	6.45	0
0	2869	6.45	0
0	2870	6.5	0
0	2871	6.5	0
0	2873	6.5	0
0	2874	6.5	0
0	2875	6.55	0
0	2876	6.55	0
0	2877	6.6	0
0	2878	6.6	0
0	2880	6.6	0
0	2881	6.6	0
0	2882	6.65	0
0	2883	6.65	0
0	2884	6.7	0
0	2885	6.7	0
0	2887	6.7	0
0	2888	6.7	0
0	2889	6.75	0
0	2890	6.75	0
0	2891	6.8	0
0	2892	6.8	0
0	2894	6.8	0
0	2895	6.8	0
0	2896	6.85	0
0	2897	6.85	0
0	2898	6.9	0
0	2899	6.9	0
0	2901	6.9	0
0	2902	6.9	0
0	2903	6.95	0
0	2904	6.95	0
0	2905	7	0
0	2906	7	0
0	2908	7	0
0	2909	7	0
0	2910	7.05	0
0	2911	7.05	0
0	2912	7.1	0
0	2913	7.1	0
0	2915	7.1	0
0	2916	7.1	0
0	2917	7.15	0
0	2918	7.15	0
0	2919	7.2	0
0	2920	7.2	0
0	2922	7.2	0
0	2923	7.2	0
0	2924	7.25	0
0	2925	7.25	0
0	2926	7.3	0
0	2927	7.3	0
0	2929	7.3	0
0	2930	7.3	0
0	2931	7.35	0
0	2932	7.35	0
0	2933	7.4	0
0	2934	7.4	0
0	2936	7.4	0
0	2937	7.4	0
0	2938	7.45	0
0	2939	7.45	0
0	2940	7.5	0
0	2941	7.5	0
0	2943	7.5	0
0	2944	7.5	0
0	2945	7.55	0
0	2946	7.55	0
0	2947	7.6	0
0	2948	7.6	0
0	2950	7.6	0
0	2951	7.6	0
0	2952	7.65	0
0	2953	7.65	0
0	2954	7.7	0
0	2955	7.7	0
0	2957	7.7	0
0	2958	7.7	0
0	2959	7.75	0
0	2960	7.75	0
0	2961	7.8	0
0	2962	7.8	0
0	2964	7.8	0
0	2965	7.8	0
0	2966	7.85	0
0	2967	7.85	0
0	2968	7.9	0
0	2969	7.9	0
0	2971	7.9	0
0	2972	7.9	0
0	2973	7.95	0
0	2974	7.95	0
0	2975	8	0
0	2976	8	0
0	2978	8	0
0	2979	8	0
0	2980	8.05	0
0	2981	8.05	0
0	2982	8.1	0
0	2983	8.1	0
0	2985	8.1	0
0	2986	8.1	0
0	2987	8.15	0
0	2988	8.15	0
0	2989	8.2	0
0	2990	8.2	0
0	2992	8.2	0
0	2993	8.2	0
0	2994	8.25	0
0	2995	8.25	0
0	2996	8.3	0
0	2997	8.3	0
0	2999	8.3	0
0	3000	8.3	0
0	3001	8.35	0
0	3002	8.35	0
0	3003	8.4	0
0	3004	8.4	0
0	3006	8.4	0
0	3007	8.4	0
0	3008	8.45	0
0	3009	8.45	0
0	3010	8.5	0
0	3011	8.5	0
0	3013	8.5	0
0	3014	8.5	0
0	3015	8.55	0
0	3016	8.55	0
0	3017	8.6	0
0	3018	8.6	0
0	3020	8.6	0
0	3021	8.6	0
0	3022	8.65	0
0	3023	8.65	0
0	3024	8.7	0
0	3025	8.7	0
0	3027	8.7	0
0	3028	8.7	0
0	3029	8.75	0
0	3030	8.75	0
0	3031	8.8	0
0	3032	8.8	0
0	3034	8.8	0
0	3035	8.8	0
0	3036	8.85	0
0	3037	8.85	0
0	3038	8.9	0
0	3039	8.9	0
0	3041	8.9	0
0	3042	8.9	0
0	3043	8.95	0
0	3044	8.95	0
0	3045	9	0
0	3046	9	0
0	3048	9	0
0	3049	9	0
0	3050	9.05	0
0	3051	9.05	0
0	3052	9.1	0
0	3053	9.1	0
0	3055	9.1	0
0	3056	9.1	0
0	3057	9.15	0
0	3058	9.15	0
0	3059	9.2	0
0	3060	9.2	0
0	3062	9.2	0
0	3063	9.2	0
0	3064	9.25	0
0	3065	9.25	0
0	3066	9.3	0
0	3067	9.3	0
0	3069	9.3	0
0	3070	9.3	0
0	3071	9.35	0
0	3072	9.35	0
0	3073	9.4	0
0	3074	9.4	0
0	3076	9.4	0
0	3077	9.4	0
0	3078	9.45	0
0	3079	9.45	0
0	3080	9.5	0
0	3081	9.5	0
0	3083	9.5	0
0	3084	9.5	0
0	3085	9.55	0
0	3086	9.55	0
0	3087	9.6	0
0	3088	9.6	0
0	3090	9.6	0
0	3091	9.6	0
0	3092	9.65	0
0	3093	9.65	0
0	3094	9.7	1
0	3095	9.7	1
0	3097	9.7	1
0	3098	9.7	1
0	3120	9.75	1
0	3121	9.75	1
0	3126	9.8	1
0	3127	9.8	1
0	3129	9.8	1
0	3130	9.8	1
0	3139	9.85	1
0	3140	9.85	1
0	3158	9.9	1
0	3159	9.9	1
0	3161	9.9	1
0	3162	9.9	1
0	3171	9.95	1
0	3172	9.95	1
0	3177	10	1
0	3178	10	1
0	3180	10	1
0	3181	10	1
1	13	0.1	-nan
1	28	0.101	-nan
1	30	0.102	-nan
1	32	0.103	-nan
1	34	0.104	-nan
1	36	0.105	-nan
1	38	0.106	-nan
1	40	0.107	-nan
1	42	0.108	-nan
1	44	0.109	-nan
1	46	0.11	-nan
1	48	0.111	-nan
1	50	0.112	-nan
1	52	0.113	-nan
1	54	0.114	-nan
1	56	0.115	-nan
1	58	0.116	-nan
1	60	0.117	-nan
1	62	0.118	-nan
1	64	0.119	-nan
1	66	0.12	-nan
1	68	0.121	-nan
1	70	0.122	-nan
1	72	0.123	-nan
1	74	0.124	-nan
1	76	0.125	-nan
1	78	0.126	-nan
1	80	0.127	-nan
1	82	0.128	-nan
1	84	0.129	-nan
1	86	0.13	-nan
1	88	0.131	-nan
1	90	0.132	-nan
1	92	0.133	-nan
1	94	0.134	-nan
1	96	0.135	-nan
1	98	0.136	-nan
1	100	0.137	-nan
1	102	0.138	-nan
1	104	0.139	-nan
1	106	0.14	-nan
1	108	0.141	-nan
1	110	0.142	-nan
1	112	0.143	-nan
1	114	0.144	-nan
1	116	0.145	-nan
1	118	0.146	-nan
1	120	0.147	-nan
1	122	0.148	-nan
1	124	0.149	-nan
1	128	0.15	-nan
1	134	0.151	-nan
1	136	0.152	-nan
1	138	0.153	-nan
1	140	0.154	-nan
1	142	0.155	-nan
1	144	0.156	-nan
1	146	0.157	-nan
1	148	0.158	-nan
1	150	0.159	-nan
1	152	0.16	-nan
1	154	0.161	-nan
1	156	0.162	-nan
1	158	0.163	-nan
1	160	0.164	-nan
1	162	0.165	-nan
1	164	0.166	-nan
1	166	0.167	-nan
1	168	0.168	-nan
1	170	0.169	-nan
1	172	0.17	-nan
1	174	0.171	-nan
1	176	0.172	-nan
1	178	0.173	-nan
1	180	0.174	-nan
1	182	0.175	-nan
1	184	0.176	-nan
1	186	0.177	-nan
1	188	0.178	-nan
1	190	0.179	-nan
1	192	0.18	-nan
1	194	0.181	-nan
1	196	0.182	-nan
1	198	0.183	-nan
1	200	0.184	-nan
1	202	0.185	-nan
1	204	0.186	-nan
1	206	0.187	-nan
1	208	0.188	-nan
1	210	0.189	-nan
1	212	0.19	-nan
1	214	0.191	-nan
1	216	0.192	-nan
1	218	0.193	-nan
1	220	0.194	-nan
1	222	0.195	-nan
1	224	0.196	-nan
1	226	0.197	-nan
1	228	0.198	-nan
1	230	0.199	-nan
2	645	1.11456	36
2	655	1.12	72
2	665	1.12544	108
2	675	1.13088	144
2	685	1.13632	180
2	695	1.14176	216
2	705	1.1472	252
2	721	1.15264	288
2	731	1.15808	324
2	741	1.16352	360
2	751	1.16896	396
2	761	1.1744	432
2	771	1.17984	468
2	781	1.18528	504
2	791	1.19072	540
2	801	1.19616	576
2	824	1.2016	612
2	834	1.20704	648
2	844	1.21248	684
2	854	1.21792	720
2	864	1.22336	756
2	874	1.2288	792
2	884	1.23424	828
2	894	1.23968	864
2	904	1.24512	900
2	920	1.25056	936
2	930	1.256	972
2	940	1.26144	1008
2	950	1.26688	1044
2	960	1.27232	1080
2	970	1.27776	1116
2	980	1.2832	1152
2	990	1.28864	1188
2	1000	1.29408	1224
2	1010	1.29952	1260
2	1033	1.30496	1296
2	1043	1.3104	1332
2	1053	1.31584	1368
2	1063	1.32128	1404
2	1073	1.32672	1440
2	1083	1.33216	1476
2	1093	1.3376	1512
2	1103	1.34304	1548
2	1113	1.34848	1584
2	1133	1.35392	1620
2	1150	1.35936	1656
2	1160	1.3648	1692
2	1170	1.37024	1728
2	1180	1.37568	1764
2	1190	1.38112	1800
2	1200	1.38656	1836
2	1210	1.392	1872
2	1220	1.39744	1908
2	1243	1.40288	1944
2	1253	1.40832	1980
2	1263	1.41376	2016
2	1273	1.4192	2052
2	1283	1.42464	2088
2	1293	1.43008	2124
2	1303	1.43552	2160
2	1313	1.44096	2196
2	1323	1.4464	2232
2	1339	1.45184	2268
2	1349	1.45728	2304
2	1359	1.46272	2340
2	1369	1.46816	2376
2	1379	1.4736	2412
2	1389	1.47904	2448
2	1399	1.48448	2484
2	1409	1.48992	2520
2	1419	1.49536	2556
2	1442	1.5008	2592
2	1452	1.50624	2628
2	1462	1.51168	2664
2	1472	1.51712	2700
2	1482	1.52256	2736
2	1492	1.528	2772
2	1502	1.53344	2808
2	1512	1.53888	2844
2	1522	1.54432	2880
2	1532	1.54976	2916
2	1550	1.5552	2952
2	1560	1.56064	2988
2	1570	1.56608	3024
2	1580	1.57152	3060
2	1590	1.57696	3096
2	1600	1.5824	3132
2	1610	1.58784	3168
2	1620	1.59328	3204
2	1630	1.59872	3240
2	1653	1.60416	3276
2	1663	1.6096	3312
2	1673	1.61504	3348
2	1683	1.62048	3384
2	1693	1.62592	3420
2	1703	1.63136	3456
2	1713	1.6368	3492
2	1723	1.64224	3528
2	1733	1.64768	3564
2	1749	1.65312	3600
3	645	1.11456	36
3	655	1.12	72
3	665	1.12544	108
3	675	1.13088	144
3	685	1.13632	180
3	695	1.14176	216
3	705	1.1472	252
3	721	1.15264	288
3	731	1.15808	324
3	741	1.16352	360
3	751	1.16896	396
3	761	1.1744	432
3	771	1.17984	468
3	781	1.18528	504
3	791	1.19072	540
3	801	1.19616	576
3	824	1.2016	612
3	834	1.20704	648
3	844	1.21248	684
3	854	1.21792	720
3	864	1.22336	756
3	874	1.2288	792
3	884	1.23424	828
3	894	1.23968	864
3	904	1.24512	900
3	920	1.25056	936
3	930	1.256	972
3	940	1.26144	1008
3	950	1.26688	1044
3	960	1.27232	1080
3	970	1.27776	1116
3	980	1.2832	1152
3	990	1.28864	1188
3	1000	1.29408	1224
3	1010	1.29952	1260
3	1033	1.30496	1296
3	1043	1.3104	1332
3	1053	1.31584	1368
3	1063	1.32128	1404
3	1073	1.32672	1440
3	1083	1.33216	1476
3	1093	1.3376	1512
3	1103	1.34304	1548
3	1113	1.34848	1584
3	1133	1.35392	1620
3	1150	1.35936	1656
3	1160	1.3648	1692
3	1170	1.37024	1728
3	1180	1.37568	1764
3	1190	1.38112	1800
3	1200	1.38656	1836
3	1210	1.392	1872
3	1220	1.39744	1908
3	1243	1.40288	1944
3	1253	1.40832	1980
3	1263	1.41376	2016
3	1273	1.4192	2052
3	1283	1.42464	2088
3	1293	1.43008	2124
3	1303	1.43552	2160
3	1313	1.44096	2196
3	1323	1.4464	2232
3	1339	1.45184	2268
3	1349	1.45728	2304
3	1359	1.46272	2340
3	1369	1.46816	2376
3	1379	1.4736	2412
3	1389	1.47904	2448
3	1399	1.48448	2484
3	1409	1.48992	2520
3	1419	1.49536	2556
3	1442	1.5008	2592
3	1452	1.50624	2628
3	1462	1.51168	2664
3	1472	1.51712	2700
3	1482	1.52256	2736
3	1492	1.528	2772
3	1502	1.53344	2808
3	1512	1.53888	2844
3	1522	1.54432	2880
3	1532	1.54976	2916
3	1550	1.5552	2952
3	1560	1.56064	2988
3	1570	1.56608	3024
3	1580	1.57152	3060
3	1590	1.57696	3096
3	1600	1.5824	3132
3	1610	1.58784	3168
3	1620	1.59328	3204
3	1630	1.59872	3240
3	1653	1.60416	3276
3	1663	1.6096	3312
3	1673	1.61504	3348
3	1683	1.62048	3384
3	1693	1.62592	3420
3	1703	1.63136	3456
3	1713	1.6368	3492
3	1723	1.64224	3528
3	1733	1.64768	3564
3	1749	1.65312	3600

