version 2
run Moves4-0-20190905-22:58:31-23324
attr configname Moves4
attr datetime 20190905-22:58:31
attr experiment Moves4
attr inifile SimV2.ini
attr iterationvars ""
attr iterationvarsf ""
attr measurement ""
attr network NetworkTormV2
attr processid 23324
attr repetition 0
attr replication #0
attr resultdir results
attr runnumber 0
attr seedset 0
param **.mobility.traceFile "\"paths/Moves4.movements\""
param **.numNodes 2
param **.application.usedRNG 1
param **.application.dataGenerationInterval 1ms
param **.application.dataSizeInBytes 10
param **.application.ttl 999999s
param **application.destinationAddr "\"Wf:00:00:00:00:02\""
param **application.destinationBTAddr "\"Bt:00:00:00:00:02\""
param **application.nodesThatGen true
param **application.nodesGenMsg "\"0\""
param **application.startMultipleMsg true
param **application.numMultipleMsg 100
param **application.hopsListSize 50
param **.routingLayer "\"RoutingLayer\""
param **.routing.maximumCacheSize 5000byte
param **.routing.maximumHopCount 25
param **.routing.useTTL false
param **.neighboring.antiEntropyInterval 200ms
param **.neighboring.maximumRandomBackoffDuration 1s
param **.neighboring.delayPerDataMsg 0.1
param **neighboring.usedRNG 2
param **.neighboring.GWAddr "\"02:00:00:00:00:03\""
param **.neighboring.sendWifiFirst true
param **.wirelessIfc.wirelessRange 15m
param **.wirelessIfc.neighbourScanInterval 50ms
param **.wirelessIfc.bandwidthBitRate 100000bps
param **.wirelessIfc.wirelessHeaderSize 32byte
param **.wirelessIfc.minSSI -90
param **.bluetoothIfc.wirelessRange 15m
param **.bluetoothIfc.neighbourScanInterval 100ms
param **.bluetoothIfc.bandwidthBitRate 100000bps
param **.bluetoothIfc.wirelessHeaderSize 16byte
param **.bluetoothIfc.minSSI -90
param **.mobilityType "\"BonnMotionMobility\""
param **.mobility.traceFile "\"paths/Moves2.movements\""
param **.mobility.nodeId -1

vector 0 NetworkTormV2 neighbourhoodSize:vector ETV
attr source neighbourhoodSize
vector 1 NetworkTormV2 deliveryRatio:vector ETV
attr source sum(totalDataBytesReceived)/sum(totalDataBytesReceivableByAllNodes)
vector 2 NetworkTormV2 dataBytesReceivedSum:vector ETV
attr source sum(dataBytesReceived)
vector 3 NetworkTormV2 totalBytesReceivedSum:vector ETV
attr source sum(totalBytesReceived)
0	7	0.05	1
0	8	0.05	1
0	14	0.1	1
0	15	0.1	1
0	17	0.1	1
0	18	0.1	1
0	126	0.15	1
0	127	0.15	1
0	232	0.2	1
0	233	0.2	1
0	235	0.2	1
0	236	0.2	1
0	245	0.25	1
0	246	0.25	1
0	251	0.3	1
0	252	0.3	1
0	254	0.3	1
0	255	0.3	1
0	264	0.35	1
0	265	0.35	1
0	270	0.4	1
0	271	0.4	1
0	273	0.4	1
0	274	0.4	1
0	283	0.45	1
0	284	0.45	1
0	289	0.5	1
0	290	0.5	1
0	292	0.5	1
0	293	0.5	1
0	302	0.55	1
0	303	0.55	1
0	308	0.6	1
0	309	0.6	1
0	311	0.6	1
0	312	0.6	1
0	321	0.65	1
0	322	0.65	1
0	327	0.7	1
0	328	0.7	1
0	330	0.7	1
0	331	0.7	1
0	340	0.75	1
0	341	0.75	1
0	346	0.8	1
0	347	0.8	1
0	349	0.8	1
0	350	0.8	1
0	359	0.85	1
0	360	0.85	1
0	365	0.9	1
0	366	0.9	1
0	368	0.9	1
0	369	0.9	1
0	378	0.95	1
0	379	0.95	1
0	384	1	1
0	385	1	1
0	387	1	1
0	388	1	1
0	397	1.05	1
0	398	1.05	1
0	403	1.1	1
0	404	1.1	1
0	406	1.1	1
0	407	1.1	1
0	712	1.15	1
0	713	1.15	1
0	808	1.2	1
0	809	1.2	1
0	811	1.2	1
0	812	1.2	1
0	911	1.25	1
0	912	1.25	1
0	1013	1.3	1
0	1014	1.3	1
0	1016	1.3	1
0	1017	1.3	1
0	1116	1.35	1
0	1117	1.35	1
0	1223	1.4	1
0	1224	1.4	1
0	1226	1.4	1
0	1227	1.4	1
0	1330	1.45	1
0	1331	1.45	1
0	1426	1.5	1
0	1427	1.5	1
0	1429	1.5	1
0	1430	1.5	1
0	1535	1.55	1
0	1536	1.55	1
0	1633	1.6	1
0	1634	1.6	1
0	1636	1.6	1
0	1637	1.6	1
0	1736	1.65	1
0	1737	1.65	1
0	1782	1.7	1
0	1783	1.7	1
0	1785	1.7	1
0	1786	1.7	1
0	1795	1.75	1
0	1796	1.75	1
0	1801	1.8	1
0	1802	1.8	1
0	1804	1.8	1
0	1805	1.8	1
0	1827	1.85	1
0	1828	1.85	1
0	1833	1.9	1
0	1834	1.9	1
0	1836	1.9	1
0	1837	1.9	1
0	1846	1.95	1
0	1847	1.95	1
0	1865	2	1
0	1866	2	1
0	1868	2	1
0	1869	2	1
0	1878	2.05	1
0	1879	2.05	1
0	1884	2.1	1
0	1885	2.1	1
0	1887	2.1	1
0	1888	2.1	1
0	1910	2.15	1
0	1911	2.15	1
0	1916	2.2	1
0	1917	2.2	1
0	1919	2.2	1
0	1920	2.2	1
0	1929	2.25	1
0	1930	2.25	1
0	1948	2.3	1
0	1949	2.3	1
0	1951	2.3	1
0	1952	2.3	1
0	1961	2.35	1
0	1962	2.35	1
0	1967	2.4	1
0	1968	2.4	1
0	1970	2.4	1
0	1971	2.4	1
0	1993	2.45	1
0	1994	2.45	1
0	1999	2.5	1
0	2000	2.5	1
0	2002	2.5	1
0	2003	2.5	1
0	2012	2.55	1
0	2013	2.55	1
0	2031	2.6	1
0	2032	2.6	1
0	2034	2.6	1
0	2035	2.6	1
0	2044	2.65	1
0	2045	2.65	1
0	2050	2.7	1
0	2051	2.7	1
0	2053	2.7	1
0	2054	2.7	1
0	2076	2.75	1
0	2077	2.75	1
0	2082	2.8	1
0	2083	2.8	1
0	2085	2.8	1
0	2086	2.8	1
0	2095	2.85	1
0	2096	2.85	1
0	2114	2.9	1
0	2115	2.9	1
0	2117	2.9	1
0	2118	2.9	1
0	2127	2.95	1
0	2128	2.95	1
0	2133	3	1
0	2134	3	1
0	2136	3	1
0	2137	3	1
0	2159	3.05	1
0	2160	3.05	1
0	2165	3.1	1
0	2166	3.1	1
0	2168	3.1	1
0	2169	3.1	1
0	2178	3.15	1
0	2179	3.15	1
0	2197	3.2	1
0	2198	3.2	1
0	2200	3.2	1
0	2201	3.2	1
0	2210	3.25	1
0	2211	3.25	1
0	2216	3.3	1
0	2217	3.3	1
0	2219	3.3	1
0	2220	3.3	1
0	2242	3.35	0
0	2243	3.35	0
0	2244	3.4	0
0	2245	3.4	0
0	2247	3.4	0
0	2248	3.4	0
0	2249	3.45	0
0	2250	3.45	0
0	2251	3.5	0
0	2252	3.5	0
0	2254	3.5	0
0	2255	3.5	0
0	2256	3.55	0
0	2257	3.55	0
0	2258	3.6	0
0	2259	3.6	0
0	2261	3.6	0
0	2262	3.6	0
0	2263	3.65	0
0	2264	3.65	0
0	2265	3.7	0
0	2266	3.7	0
0	2268	3.7	0
0	2269	3.7	0
0	2270	3.75	0
0	2271	3.75	0
0	2272	3.8	0
0	2273	3.8	0
0	2275	3.8	0
0	2276	3.8	0
0	2277	3.85	0
0	2278	3.85	0
0	2279	3.9	0
0	2280	3.9	0
0	2282	3.9	0
0	2283	3.9	0
0	2284	3.95	0
0	2285	3.95	0
0	2286	4	0
0	2287	4	0
0	2289	4	0
0	2290	4	0
0	2291	4.05	0
0	2292	4.05	0
0	2293	4.1	0
0	2294	4.1	0
0	2296	4.1	0
0	2297	4.1	0
0	2298	4.15	0
0	2299	4.15	0
0	2300	4.2	0
0	2301	4.2	0
0	2303	4.2	0
0	2304	4.2	0
0	2305	4.25	0
0	2306	4.25	0
0	2307	4.3	0
0	2308	4.3	0
0	2310	4.3	0
0	2311	4.3	0
0	2312	4.35	0
0	2313	4.35	0
0	2314	4.4	0
0	2315	4.4	0
0	2317	4.4	0
0	2318	4.4	0
0	2319	4.45	0
0	2320	4.45	0
0	2321	4.5	0
0	2322	4.5	0
0	2324	4.5	0
0	2325	4.5	0
0	2326	4.55	0
0	2327	4.55	0
0	2328	4.6	0
0	2329	4.6	0
0	2331	4.6	0
0	2332	4.6	0
0	2333	4.65	0
0	2334	4.65	0
0	2335	4.7	0
0	2336	4.7	0
0	2338	4.7	0
0	2339	4.7	0
0	2340	4.75	0
0	2341	4.75	0
0	2342	4.8	0
0	2343	4.8	0
0	2345	4.8	0
0	2346	4.8	0
0	2347	4.85	0
0	2348	4.85	0
0	2349	4.9	0
0	2350	4.9	0
0	2352	4.9	0
0	2353	4.9	0
0	2354	4.95	0
0	2355	4.95	0
0	2356	5	0
0	2357	5	0
0	2359	5	0
0	2360	5	0
0	2361	5.05	0
0	2362	5.05	0
0	2363	5.1	0
0	2364	5.1	0
0	2366	5.1	0
0	2367	5.1	0
0	2368	5.15	0
0	2369	5.15	0
0	2370	5.2	0
0	2371	5.2	0
0	2373	5.2	0
0	2374	5.2	0
0	2375	5.25	0
0	2376	5.25	0
0	2377	5.3	0
0	2378	5.3	0
0	2380	5.3	0
0	2381	5.3	0
0	2382	5.35	0
0	2383	5.35	0
0	2384	5.4	0
0	2385	5.4	0
0	2387	5.4	0
0	2388	5.4	0
0	2389	5.45	0
0	2390	5.45	0
0	2391	5.5	0
0	2392	5.5	0
0	2394	5.5	0
0	2395	5.5	0
0	2396	5.55	0
0	2397	5.55	0
0	2398	5.6	0
0	2399	5.6	0
0	2401	5.6	0
0	2402	5.6	0
0	2403	5.65	0
0	2404	5.65	0
0	2405	5.7	0
0	2406	5.7	0
0	2408	5.7	0
0	2409	5.7	0
0	2410	5.75	0
0	2411	5.75	0
0	2412	5.8	0
0	2413	5.8	0
0	2415	5.8	0
0	2416	5.8	0
0	2417	5.85	0
0	2418	5.85	0
0	2419	5.9	0
0	2420	5.9	0
0	2422	5.9	0
0	2423	5.9	0
0	2424	5.95	0
0	2425	5.95	0
0	2426	6	0
0	2427	6	0
0	2429	6	0
0	2430	6	0
0	2431	6.05	0
0	2432	6.05	0
0	2433	6.1	0
0	2434	6.1	0
0	2436	6.1	0
0	2437	6.1	0
0	2438	6.15	0
0	2439	6.15	0
0	2440	6.2	0
0	2441	6.2	0
0	2443	6.2	0
0	2444	6.2	0
0	2445	6.25	0
0	2446	6.25	0
0	2447	6.3	0
0	2448	6.3	0
0	2450	6.3	0
0	2451	6.3	0
0	2452	6.35	0
0	2453	6.35	0
0	2454	6.4	0
0	2455	6.4	0
0	2457	6.4	0
0	2458	6.4	0
0	2459	6.45	0
0	2460	6.45	0
0	2461	6.5	0
0	2462	6.5	0
0	2464	6.5	0
0	2465	6.5	0
0	2466	6.55	0
0	2467	6.55	0
0	2468	6.6	0
0	2469	6.6	0
0	2471	6.6	0
0	2472	6.6	0
0	2473	6.65	0
0	2474	6.65	0
0	2475	6.7	0
0	2476	6.7	0
0	2478	6.7	0
0	2479	6.7	0
0	2480	6.75	0
0	2481	6.75	0
0	2482	6.8	0
0	2483	6.8	0
0	2485	6.8	0
0	2486	6.8	0
0	2487	6.85	0
0	2488	6.85	0
0	2489	6.9	0
0	2490	6.9	0
0	2492	6.9	0
0	2493	6.9	0
0	2494	6.95	0
0	2495	6.95	0
0	2496	7	0
0	2497	7	0
0	2499	7	0
0	2500	7	0
0	2501	7.05	0
0	2502	7.05	0
0	2503	7.1	0
0	2504	7.1	0
0	2506	7.1	0
0	2507	7.1	0
0	2508	7.15	0
0	2509	7.15	0
0	2510	7.2	0
0	2511	7.2	0
0	2513	7.2	0
0	2514	7.2	0
0	2515	7.25	0
0	2516	7.25	0
0	2517	7.3	0
0	2518	7.3	0
0	2520	7.3	0
0	2521	7.3	0
0	2522	7.35	0
0	2523	7.35	0
0	2524	7.4	0
0	2525	7.4	0
0	2527	7.4	0
0	2528	7.4	0
0	2529	7.45	0
0	2530	7.45	0
0	2531	7.5	0
0	2532	7.5	0
0	2534	7.5	0
0	2535	7.5	0
0	2536	7.55	0
0	2537	7.55	0
0	2538	7.6	0
0	2539	7.6	0
0	2541	7.6	0
0	2542	7.6	0
0	2543	7.65	0
0	2544	7.65	0
0	2545	7.7	0
0	2546	7.7	0
0	2548	7.7	0
0	2549	7.7	0
0	2550	7.75	0
0	2551	7.75	0
0	2552	7.8	0
0	2553	7.8	0
0	2555	7.8	0
0	2556	7.8	0
0	2557	7.85	0
0	2558	7.85	0
0	2559	7.9	0
0	2560	7.9	0
0	2562	7.9	0
0	2563	7.9	0
0	2564	7.95	0
0	2565	7.95	0
0	2566	8	0
0	2567	8	0
0	2569	8	0
0	2570	8	0
0	2571	8.05	0
0	2572	8.05	0
0	2573	8.1	0
0	2574	8.1	0
0	2576	8.1	0
0	2577	8.1	0
0	2578	8.15	0
0	2579	8.15	0
0	2580	8.2	0
0	2581	8.2	0
0	2583	8.2	0
0	2584	8.2	0
0	2585	8.25	0
0	2586	8.25	0
0	2587	8.3	0
0	2588	8.3	0
0	2590	8.3	0
0	2591	8.3	0
0	2592	8.35	0
0	2593	8.35	0
0	2594	8.4	0
0	2595	8.4	0
0	2597	8.4	0
0	2598	8.4	0
0	2599	8.45	0
0	2600	8.45	0
0	2601	8.5	0
0	2602	8.5	0
0	2604	8.5	0
0	2605	8.5	0
0	2606	8.55	0
0	2607	8.55	0
0	2608	8.6	0
0	2609	8.6	0
0	2611	8.6	0
0	2612	8.6	0
0	2613	8.65	0
0	2614	8.65	0
0	2615	8.7	0
0	2616	8.7	0
0	2618	8.7	0
0	2619	8.7	0
0	2620	8.75	0
0	2621	8.75	0
0	2622	8.8	0
0	2623	8.8	0
0	2625	8.8	0
0	2626	8.8	0
0	2627	8.85	1
0	2628	8.85	1
0	2646	8.9	1
0	2647	8.9	1
0	2649	8.9	1
0	2650	8.9	1
0	2659	8.95	1
0	2660	8.95	1
0	2665	9	1
0	2666	9	1
0	2668	9	1
0	2669	9	1
0	2691	9.05	1
0	2692	9.05	1
0	2697	9.1	1
0	2698	9.1	1
0	2699	9.1	1
0	2700	9.1	1
0	2709	9.15	1
0	2710	9.15	1
0	2728	9.2	1
0	2729	9.2	1
0	2730	9.2	1
0	2731	9.2	1
0	2740	9.25	1
0	2741	9.25	1
0	2746	9.3	1
0	2747	9.3	1
0	2748	9.3	1
0	2749	9.3	1
0	2771	9.35	1
0	2772	9.35	1
0	2777	9.4	1
0	2778	9.4	1
0	2779	9.4	1
0	2780	9.4	1
0	2789	9.45	1
0	2790	9.45	1
0	2808	9.5	1
0	2809	9.5	1
0	2810	9.5	1
0	2811	9.5	1
0	2820	9.55	1
0	2821	9.55	1
0	2826	9.6	1
0	2827	9.6	1
0	2828	9.6	1
0	2829	9.6	1
0	2851	9.65	1
0	2852	9.65	1
0	2857	9.7	1
0	2858	9.7	1
0	2859	9.7	1
0	2860	9.7	1
0	2869	9.75	1
0	2870	9.75	1
0	2888	9.8	1
0	2889	9.8	1
0	2890	9.8	1
0	2891	9.8	1
0	2900	9.85	1
0	2901	9.85	1
0	2906	9.9	1
0	2907	9.9	1
0	2908	9.9	1
0	2909	9.9	1
0	2931	9.95	1
0	2932	9.95	1
0	2937	10	1
0	2938	10	1
0	2939	10	1
0	2940	10	1
0	2949	10.05	1
0	2950	10.05	1
0	2968	10.1	1
0	2969	10.1	1
0	2970	10.1	1
0	2971	10.1	1
0	2980	10.15	1
0	2981	10.15	1
0	2986	10.2	1
0	2987	10.2	1
0	2988	10.2	1
0	2989	10.2	1
0	3011	10.25	1
0	3012	10.25	1
0	3017	10.3	1
0	3018	10.3	1
0	3019	10.3	1
0	3020	10.3	1
0	3029	10.35	1
0	3030	10.35	1
0	3048	10.4	1
0	3049	10.4	1
0	3050	10.4	1
0	3051	10.4	1
0	3060	10.45	1
0	3061	10.45	1
0	3066	10.5	1
0	3067	10.5	1
0	3068	10.5	1
0	3069	10.5	1
0	3091	10.55	1
0	3092	10.55	1
0	3097	10.6	1
0	3098	10.6	1
0	3099	10.6	1
0	3100	10.6	1
0	3109	10.65	1
0	3110	10.65	1
0	3128	10.7	1
0	3129	10.7	1
0	3130	10.7	1
0	3131	10.7	1
0	3140	10.75	1
0	3141	10.75	1
0	3146	10.8	1
0	3147	10.8	1
0	3148	10.8	1
0	3149	10.8	1
0	3171	10.85	1
0	3172	10.85	1
0	3177	10.9	1
0	3178	10.9	1
0	3179	10.9	1
0	3180	10.9	1
0	3189	10.95	1
0	3190	10.95	1
0	3208	11	1
0	3209	11	1
0	3210	11	1
0	3211	11	1
1	13	0.1	-nan
1	28	0.101	-nan
1	30	0.102	-nan
1	32	0.103	-nan
1	34	0.104	-nan
1	36	0.105	-nan
1	38	0.106	-nan
1	40	0.107	-nan
1	42	0.108	-nan
1	44	0.109	-nan
1	46	0.11	-nan
1	48	0.111	-nan
1	50	0.112	-nan
1	52	0.113	-nan
1	54	0.114	-nan
1	56	0.115	-nan
1	58	0.116	-nan
1	60	0.117	-nan
1	62	0.118	-nan
1	64	0.119	-nan
1	66	0.12	-nan
1	68	0.121	-nan
1	70	0.122	-nan
1	72	0.123	-nan
1	74	0.124	-nan
1	76	0.125	-nan
1	78	0.126	-nan
1	80	0.127	-nan
1	82	0.128	-nan
1	84	0.129	-nan
1	86	0.13	-nan
1	88	0.131	-nan
1	90	0.132	-nan
1	92	0.133	-nan
1	94	0.134	-nan
1	96	0.135	-nan
1	98	0.136	-nan
1	100	0.137	-nan
1	102	0.138	-nan
1	104	0.139	-nan
1	106	0.14	-nan
1	108	0.141	-nan
1	110	0.142	-nan
1	112	0.143	-nan
1	114	0.144	-nan
1	116	0.145	-nan
1	118	0.146	-nan
1	120	0.147	-nan
1	122	0.148	-nan
1	124	0.149	-nan
1	128	0.15	-nan
1	134	0.151	-nan
1	136	0.152	-nan
1	138	0.153	-nan
1	140	0.154	-nan
1	142	0.155	-nan
1	144	0.156	-nan
1	146	0.157	-nan
1	148	0.158	-nan
1	150	0.159	-nan
1	152	0.16	-nan
1	154	0.161	-nan
1	156	0.162	-nan
1	158	0.163	-nan
1	160	0.164	-nan
1	162	0.165	-nan
1	164	0.166	-nan
1	166	0.167	-nan
1	168	0.168	-nan
1	170	0.169	-nan
1	172	0.17	-nan
1	174	0.171	-nan
1	176	0.172	-nan
1	178	0.173	-nan
1	180	0.174	-nan
1	182	0.175	-nan
1	184	0.176	-nan
1	186	0.177	-nan
1	188	0.178	-nan
1	190	0.179	-nan
1	192	0.18	-nan
1	194	0.181	-nan
1	196	0.182	-nan
1	198	0.183	-nan
1	200	0.184	-nan
1	202	0.185	-nan
1	204	0.186	-nan
1	206	0.187	-nan
1	208	0.188	-nan
1	210	0.189	-nan
1	212	0.19	-nan
1	214	0.191	-nan
1	216	0.192	-nan
1	218	0.193	-nan
1	220	0.194	-nan
1	222	0.195	-nan
1	224	0.196	-nan
1	226	0.197	-nan
1	228	0.198	-nan
1	230	0.199	-nan
2	645	1.11456	36
2	655	1.12	72
2	665	1.12544	108
2	675	1.13088	144
2	685	1.13632	180
2	695	1.14176	216
2	705	1.1472	252
2	721	1.15264	288
2	731	1.15808	324
2	741	1.16352	360
2	751	1.16896	396
2	761	1.1744	432
2	771	1.17984	468
2	781	1.18528	504
2	791	1.19072	540
2	801	1.19616	576
2	824	1.2016	612
2	834	1.20704	648
2	844	1.21248	684
2	854	1.21792	720
2	864	1.22336	756
2	874	1.2288	792
2	884	1.23424	828
2	894	1.23968	864
2	904	1.24512	900
2	920	1.25056	936
2	930	1.256	972
2	940	1.26144	1008
2	950	1.26688	1044
2	960	1.27232	1080
2	970	1.27776	1116
2	980	1.2832	1152
2	990	1.28864	1188
2	1000	1.29408	1224
2	1010	1.29952	1260
2	1033	1.30496	1296
2	1043	1.3104	1332
2	1053	1.31584	1368
2	1063	1.32128	1404
2	1073	1.32672	1440
2	1083	1.33216	1476
2	1093	1.3376	1512
2	1103	1.34304	1548
2	1113	1.34848	1584
2	1133	1.35392	1620
2	1150	1.35936	1656
2	1160	1.3648	1692
2	1170	1.37024	1728
2	1180	1.37568	1764
2	1190	1.38112	1800
2	1200	1.38656	1836
2	1210	1.392	1872
2	1220	1.39744	1908
2	1243	1.40288	1944
2	1253	1.40832	1980
2	1263	1.41376	2016
2	1273	1.4192	2052
2	1283	1.42464	2088
2	1293	1.43008	2124
2	1303	1.43552	2160
2	1313	1.44096	2196
2	1323	1.4464	2232
2	1339	1.45184	2268
2	1349	1.45728	2304
2	1359	1.46272	2340
2	1369	1.46816	2376
2	1379	1.4736	2412
2	1389	1.47904	2448
2	1399	1.48448	2484
2	1409	1.48992	2520
2	1419	1.49536	2556
2	1442	1.5008	2592
2	1452	1.50624	2628
2	1462	1.51168	2664
2	1472	1.51712	2700
2	1482	1.52256	2736
2	1492	1.528	2772
2	1502	1.53344	2808
2	1512	1.53888	2844
2	1522	1.54432	2880
2	1532	1.54976	2916
2	1550	1.5552	2952
2	1560	1.56064	2988
2	1570	1.56608	3024
2	1580	1.57152	3060
2	1590	1.57696	3096
2	1600	1.5824	3132
2	1610	1.58784	3168
2	1620	1.59328	3204
2	1630	1.59872	3240
2	1653	1.60416	3276
2	1663	1.6096	3312
2	1673	1.61504	3348
2	1683	1.62048	3384
2	1693	1.62592	3420
2	1703	1.63136	3456
2	1713	1.6368	3492
2	1723	1.64224	3528
2	1733	1.64768	3564
2	1749	1.65312	3600
3	645	1.11456	36
3	655	1.12	72
3	665	1.12544	108
3	675	1.13088	144
3	685	1.13632	180
3	695	1.14176	216
3	705	1.1472	252
3	721	1.15264	288
3	731	1.15808	324
3	741	1.16352	360
3	751	1.16896	396
3	761	1.1744	432
3	771	1.17984	468
3	781	1.18528	504
3	791	1.19072	540
3	801	1.19616	576
3	824	1.2016	612
3	834	1.20704	648
3	844	1.21248	684
3	854	1.21792	720
3	864	1.22336	756
3	874	1.2288	792
3	884	1.23424	828
3	894	1.23968	864
3	904	1.24512	900
3	920	1.25056	936
3	930	1.256	972
3	940	1.26144	1008
3	950	1.26688	1044
3	960	1.27232	1080
3	970	1.27776	1116
3	980	1.2832	1152
3	990	1.28864	1188
3	1000	1.29408	1224
3	1010	1.29952	1260
3	1033	1.30496	1296
3	1043	1.3104	1332
3	1053	1.31584	1368
3	1063	1.32128	1404
3	1073	1.32672	1440
3	1083	1.33216	1476
3	1093	1.3376	1512
3	1103	1.34304	1548
3	1113	1.34848	1584
3	1133	1.35392	1620
3	1150	1.35936	1656
3	1160	1.3648	1692
3	1170	1.37024	1728
3	1180	1.37568	1764
3	1190	1.38112	1800
3	1200	1.38656	1836
3	1210	1.392	1872
3	1220	1.39744	1908
3	1243	1.40288	1944
3	1253	1.40832	1980
3	1263	1.41376	2016
3	1273	1.4192	2052
3	1283	1.42464	2088
3	1293	1.43008	2124
3	1303	1.43552	2160
3	1313	1.44096	2196
3	1323	1.4464	2232
3	1339	1.45184	2268
3	1349	1.45728	2304
3	1359	1.46272	2340
3	1369	1.46816	2376
3	1379	1.4736	2412
3	1389	1.47904	2448
3	1399	1.48448	2484
3	1409	1.48992	2520
3	1419	1.49536	2556
3	1442	1.5008	2592
3	1452	1.50624	2628
3	1462	1.51168	2664
3	1472	1.51712	2700
3	1482	1.52256	2736
3	1492	1.528	2772
3	1502	1.53344	2808
3	1512	1.53888	2844
3	1522	1.54432	2880
3	1532	1.54976	2916
3	1550	1.5552	2952
3	1560	1.56064	2988
3	1570	1.56608	3024
3	1580	1.57152	3060
3	1590	1.57696	3096
3	1600	1.5824	3132
3	1610	1.58784	3168
3	1620	1.59328	3204
3	1630	1.59872	3240
3	1653	1.60416	3276
3	1663	1.6096	3312
3	1673	1.61504	3348
3	1683	1.62048	3384
3	1693	1.62592	3420
3	1703	1.63136	3456
3	1713	1.6368	3492
3	1723	1.64224	3528
3	1733	1.64768	3564
3	1749	1.65312	3600

