version 2
run realP1-0-20191113-15:11:39-9434
attr configname realP1
attr datetime 20191113-15:11:39
attr experiment realP1
attr inifile GwSimV2.ini
attr iterationvars ""
attr iterationvarsf ""
attr measurement ""
attr network NetworkTormV2
attr processid 9434
attr repetition 0
attr replication #0
attr resultdir results
attr runnumber 0
attr seedset 0
param **.mobility.traceFile "\"AllPaths/mobPaths/realP1.movements\""
param **.numNodes 5
param **.application.dataGenerationInterval 1s
param **.application.dataSizeInBytes 10
param **.application.ttl 999999s
param **application.nodesThatGen false
param **application.nodesGenMsg "\"\""
param **application.startMultipleMsg false
param **application.numMultipleMsg 100
param **application.hopsListSize 50
param **.application.endGeneratingMsg 539s
param **.routingLayer "\"RoutingLqeGw\""
param **.routing.maximumCacheSize 5000byte
param **.routing.maximumHopCount 25
param **.routing.useTTL false
param **.routing.waitBFsend 0.1
param **.routing.max_age 999999s
param **.routing.gateway_list "\"\""
param **.routing.actual_gateway "\"\""
param **.routing.gwCheckPeriod 5s
param **.neighboring.resetGPeriod 999s
param **.wirelessIfc.wirelessRange 40m
param **.numNodes 2
param **.application.usedRNG 1
param **.application.dataGenerationInterval 1s
param **.application.dataSizeInBytes 10
param **.application.ttl 999999s
param **application.destinationAddr "\"Wf:00:00:00:00:02\""
param **application.destinationBTAddr "\"Bt:00:00:00:00:02\""
param **application.nodesThatGen true
param **application.nodesGenMsg "\"0\""
param **application.startMultipleMsg true
param **application.numMultipleMsg 100
param **application.hopsListSize 50
param **.application.endGeneratingMsg 999999s
param **.routingLayer "\"RoutingLqeGw\""
param **.routing.maximumCacheSize 5000byte
param **.routing.maximumHopCount 25
param **.routing.useTTL false
param **.routing.waitBFsend 0.1
param **.routing.max_age 999999s
param **.routing.gateway_list "\"\""
param **.routing.actual_gateway "\"\""
param **.routing.gwCheckPeriod 5s
param **.neighboring.antiEntropyInterval 500ms
param **.neighboring.maximumRandomBackoffDuration 1s
param **.neighboring.delayPerDataMsg 0.1
param **neighboring.usedRNG 2
param **.neighboring.GWAddr "\"Wf:00:00:00:00:02\""
param **.neighboring.sendWifiFirst true
param **.neighboring.maxLengthGraph 20
param **.neighboring.max_age 999999s
param **.neighboring.max_absent_time 1s
param **.wirelessIfc.wirelessRange 40m
param **.wirelessIfc.neighbourScanInterval 50ms
param **.wirelessIfc.bandwidthBitRate 100000bps
param **.wirelessIfc.wirelessHeaderSize 32byte
param **.wirelessIfc.minSSI -90
param **.wirelessIfc.limitQueueTime 400ms
param **.wirelessIfc.my_limit_rate 0bps
param **.bluetoothIfc.wirelessRange 40m
param **.bluetoothIfc.neighbourScanInterval 100ms
param **.bluetoothIfc.bandwidthBitRate 100000bps
param **.bluetoothIfc.wirelessHeaderSize 16byte
param **.bluetoothIfc.minSSI -90
param **.mobilityType "\"BonnMotionMobility\""
param **.mobility.traceFile "\"paths/Moves2.movements\""
param **.mobility.is3D false
param **.mobility.nodeId -1

vector 0 NetworkTormV2 neighbourhoodSize:vector ETV
attr source neighbourhoodSize
vector 1 NetworkTormV2 deliveryRatio:vector ETV
attr source sum(totalDataBytesReceived)/sum(totalDataBytesReceivableByAllNodes)
vector 2 NetworkTormV2 dataBytesReceivedSum:vector ETV
attr source sum(dataBytesReceived)
vector 3 NetworkTormV2 totalBytesReceivedSum:vector ETV
attr source sum(totalBytesReceived)
0	16	0.05	2
0	17	0.05	3
0	18	0.05	4
0	19	0.05	3
0	20	0.05	2
0	62	0.1	2
0	64	0.1	3
0	66	0.1	4
0	68	0.1	3
0	70	0.1	2
0	76	0.1	2
0	77	0.1	3
0	78	0.1	4
0	79	0.1	3
0	80	0.1	2
0	136	0.15	2
0	137	0.15	3
0	138	0.15	4
0	139	0.15	3
0	140	0.15	2
0	181	0.2	2
0	182	0.2	3
0	183	0.2	4
0	184	0.2	3
0	185	0.2	2
0	191	0.2	2
0	192	0.2	3
0	193	0.2	4
0	194	0.2	3
0	195	0.2	2
0	246	0.25	2
0	247	0.25	3
0	248	0.25	4
0	249	0.25	3
0	250	0.25	2
0	291	0.3	2
0	292	0.3	3
0	293	0.3	4
0	294	0.3	3
0	295	0.3	2
0	301	0.3	2
0	302	0.3	3
0	303	0.3	4
0	304	0.3	3
0	305	0.3	2
0	356	0.35	2
0	357	0.35	3
0	358	0.35	4
0	359	0.35	3
0	360	0.35	2
0	401	0.4	2
0	402	0.4	3
0	403	0.4	4
0	404	0.4	3
0	405	0.4	2
0	411	0.4	2
0	412	0.4	3
0	413	0.4	4
0	414	0.4	3
0	415	0.4	2
0	466	0.45	2
0	467	0.45	3
0	468	0.45	4
0	469	0.45	3
0	470	0.45	2
0	511	0.5	2
0	512	0.5	3
0	513	0.5	4
0	514	0.5	3
0	515	0.5	2
0	521	0.5	2
0	522	0.5	3
0	523	0.5	4
0	524	0.5	3
0	525	0.5	2
0	576	0.55	2
0	577	0.55	3
0	578	0.55	4
0	579	0.55	3
0	580	0.55	2
0	621	0.6	2
0	622	0.6	3
0	623	0.6	4
0	624	0.6	3
0	625	0.6	2
0	631	0.6	2
0	632	0.6	3
0	633	0.6	4
0	634	0.6	3
0	635	0.6	2
0	686	0.65	2
0	687	0.65	3
0	688	0.65	4
0	689	0.65	3
0	690	0.65	2
0	731	0.7	2
0	732	0.7	3
0	733	0.7	4
0	734	0.7	3
0	735	0.7	2
0	741	0.7	2
0	742	0.7	3
0	743	0.7	4
0	744	0.7	3
0	745	0.7	2
0	796	0.75	2
0	797	0.75	3
0	798	0.75	4
0	799	0.75	3
0	800	0.75	2
0	841	0.8	2
0	842	0.8	3
0	843	0.8	4
0	844	0.8	3
0	845	0.8	2
0	851	0.8	2
0	852	0.8	3
0	853	0.8	4
0	854	0.8	3
0	855	0.8	2
0	906	0.85	2
0	907	0.85	3
0	908	0.85	4
0	909	0.85	3
0	910	0.85	2
0	951	0.9	2
0	952	0.9	3
0	953	0.9	4
0	954	0.9	3
0	955	0.9	2
0	961	0.9	2
0	962	0.9	3
0	963	0.9	4
0	964	0.9	3
0	965	0.9	2
0	1016	0.95	2
0	1017	0.95	3
0	1018	0.95	4
0	1019	0.95	3
0	1020	0.95	2
0	1061	1	2
0	1062	1	3
0	1063	1	4
0	1064	1	3
0	1065	1	2
0	1071	1	2
0	1072	1	3
0	1073	1	4
0	1074	1	3
0	1075	1	2
0	1126	1.05	2
0	1127	1.05	3
0	1128	1.05	4
0	1129	1.05	3
0	1130	1.05	2
0	1176	1.1	2
0	1177	1.1	3
0	1178	1.1	4
0	1179	1.1	3
0	1180	1.1	2
0	1186	1.1	2
0	1187	1.1	3
0	1188	1.1	4
0	1189	1.1	3
0	1190	1.1	2
0	1448	1.15	2
0	1449	1.15	3
0	1450	1.15	4
0	1451	1.15	3
0	1452	1.15	2
0	1553	1.2	2
0	1554	1.2	3
0	1555	1.2	4
0	1556	1.2	3
0	1557	1.2	2
0	1563	1.2	2
0	1564	1.2	3
0	1565	1.2	4
0	1566	1.2	3
0	1567	1.2	2
0	1618	1.25	2
0	1619	1.25	3
0	1620	1.25	4
0	1621	1.25	3
0	1622	1.25	2
0	1663	1.3	2
0	1664	1.3	3
0	1665	1.3	4
0	1666	1.3	3
0	1667	1.3	2
0	1673	1.3	2
0	1674	1.3	3
0	1675	1.3	4
0	1676	1.3	3
0	1677	1.3	2
0	1728	1.35	2
0	1729	1.35	3
0	1730	1.35	4
0	1731	1.35	3
0	1732	1.35	2
0	1773	1.4	2
0	1774	1.4	3
0	1775	1.4	4
0	1776	1.4	3
0	1777	1.4	2
0	1783	1.4	2
0	1784	1.4	3
0	1785	1.4	4
0	1786	1.4	3
0	1787	1.4	2
0	1838	1.45	2
0	1839	1.45	3
0	1840	1.45	4
0	1841	1.45	3
0	1842	1.45	2
0	1883	1.5	2
0	1884	1.5	3
0	1885	1.5	4
0	1886	1.5	3
0	1887	1.5	2
0	1893	1.5	2
0	1894	1.5	3
0	1895	1.5	4
0	1896	1.5	3
0	1897	1.5	2
0	1948	1.55	2
0	1949	1.55	3
0	1950	1.55	4
0	1951	1.55	3
0	1952	1.55	2
0	1993	1.6	2
0	1994	1.6	3
0	1995	1.6	4
0	1996	1.6	3
0	1997	1.6	2
0	2003	1.6	2
0	2004	1.6	3
0	2005	1.6	4
0	2006	1.6	3
0	2007	1.6	2
0	2058	1.65	2
0	2059	1.65	3
0	2060	1.65	4
0	2061	1.65	3
0	2062	1.65	2
0	2311	1.7	2
0	2312	1.7	3
0	2313	1.7	4
0	2314	1.7	3
0	2315	1.7	2
0	2321	1.7	2
0	2322	1.7	3
0	2323	1.7	4
0	2324	1.7	3
0	2325	1.7	2
0	2415	1.75	2
0	2416	1.75	3
0	2417	1.75	4
0	2418	1.75	3
0	2419	1.75	2
0	2460	1.8	2
0	2461	1.8	3
0	2462	1.8	4
0	2463	1.8	3
0	2464	1.8	2
0	2470	1.8	2
0	2471	1.8	3
0	2472	1.8	4
0	2473	1.8	3
0	2474	1.8	2
0	2548	1.85	2
0	2549	1.85	3
0	2550	1.85	4
0	2551	1.85	3
0	2552	1.85	2
0	2593	1.9	2
0	2594	1.9	3
0	2595	1.9	4
0	2596	1.9	3
0	2597	1.9	2
0	2603	1.9	2
0	2604	1.9	3
0	2605	1.9	4
0	2606	1.9	3
0	2607	1.9	2
0	2658	1.95	2
0	2659	1.95	3
0	2660	1.95	4
0	2661	1.95	3
0	2662	1.95	2
0	2703	2	2
0	2704	2	3
0	2705	2	4
0	2706	2	3
0	2707	2	2
0	2713	2	2
0	2714	2	3
0	2715	2	4
0	2716	2	3
0	2717	2	2
0	2768	2.05	2
0	2769	2.05	3
0	2770	2.05	4
0	2771	2.05	3
0	2772	2.05	2
0	2818	2.1	2
0	2819	2.1	3
0	2820	2.1	4
0	2821	2.1	3
0	2822	2.1	2
0	2828	2.1	2
0	2829	2.1	3
0	2830	2.1	4
0	2831	2.1	3
0	2832	2.1	2
0	2888	2.15	2
0	2889	2.15	3
0	2890	2.15	4
0	2891	2.15	3
0	2892	2.15	2
0	2933	2.2	2
0	2934	2.2	3
0	2935	2.2	4
0	2936	2.2	3
0	2937	2.2	2
0	2943	2.2	2
0	2944	2.2	3
0	2945	2.2	4
0	2946	2.2	3
0	2947	2.2	2
0	3182	2.25	2
0	3183	2.25	3
0	3184	2.25	4
0	3185	2.25	3
0	3186	2.25	2
0	3254	2.3	2
0	3255	2.3	3
0	3256	2.3	4
0	3257	2.3	3
0	3258	2.3	2
0	3264	2.3	2
0	3265	2.3	3
0	3266	2.3	4
0	3267	2.3	3
0	3268	2.3	2
0	3319	2.35	2
0	3320	2.35	3
0	3321	2.35	4
0	3322	2.35	3
0	3323	2.35	2
0	3387	2.4	2
0	3388	2.4	3
0	3389	2.4	4
0	3390	2.4	3
0	3391	2.4	2
0	3397	2.4	2
0	3398	2.4	3
0	3399	2.4	4
0	3400	2.4	3
0	3401	2.4	2
0	3452	2.45	2
0	3453	2.45	3
0	3454	2.45	4
0	3455	2.45	3
0	3456	2.45	2
0	3497	2.5	2
0	3498	2.5	3
0	3499	2.5	4
0	3500	2.5	3
0	3501	2.5	2
0	3507	2.5	2
0	3508	2.5	3
0	3509	2.5	4
0	3510	2.5	3
0	3511	2.5	2
0	3562	2.55	2
0	3563	2.55	3
0	3564	2.55	4
0	3565	2.55	3
0	3566	2.55	2
0	3607	2.6	2
0	3608	2.6	3
0	3609	2.6	4
0	3610	2.6	3
0	3611	2.6	2
0	3617	2.6	2
0	3618	2.6	3
0	3619	2.6	4
0	3620	2.6	3
0	3621	2.6	2
0	3672	2.65	2
0	3673	2.65	3
0	3674	2.65	4
0	3675	2.65	3
0	3676	2.65	2
0	3717	2.7	2
0	3718	2.7	3
0	3719	2.7	4
0	3720	2.7	3
0	3721	2.7	2
0	3727	2.7	2
0	3728	2.7	3
0	3729	2.7	4
0	3730	2.7	3
0	3731	2.7	2
0	3792	2.75	2
0	3793	2.75	3
0	3794	2.75	4
0	3795	2.75	3
0	3796	2.75	2
0	4017	2.8	2
0	4018	2.8	3
0	4019	2.8	4
0	4020	2.8	3
0	4021	2.8	2
0	4027	2.8	2
0	4028	2.8	3
0	4029	2.8	4
0	4030	2.8	3
0	4031	2.8	2
0	4091	2.85	2
0	4092	2.85	3
0	4093	2.85	4
0	4094	2.85	3
0	4095	2.85	2
0	4136	2.9	2
0	4137	2.9	3
0	4138	2.9	4
0	4139	2.9	3
0	4140	2.9	2
0	4146	2.9	2
0	4147	2.9	3
0	4148	2.9	4
0	4149	2.9	3
0	4150	2.9	2
0	4201	2.95	2
0	4202	2.95	3
0	4203	2.95	4
0	4204	2.95	3
0	4205	2.95	2
0	4246	3	2
0	4247	3	3
0	4248	3	4
0	4249	3	3
0	4250	3	2
0	4256	3	2
0	4257	3	3
0	4258	3	4
0	4259	3	3
0	4260	3	2
0	4311	3.05	2
0	4312	3.05	3
0	4313	3.05	4
0	4314	3.05	3
0	4315	3.05	2
0	4361	3.1	2
0	4362	3.1	3
0	4363	3.1	4
0	4364	3.1	3
0	4365	3.1	2
0	4371	3.1	2
0	4372	3.1	3
0	4373	3.1	4
0	4374	3.1	3
0	4375	3.1	2
0	4431	3.15	2
0	4432	3.15	3
0	4433	3.15	4
0	4434	3.15	3
0	4435	3.15	2
0	4476	3.2	2
0	4477	3.2	3
0	4478	3.2	4
0	4479	3.2	3
0	4480	3.2	2
0	4486	3.2	2
0	4487	3.2	3
0	4488	3.2	4
0	4489	3.2	3
0	4490	3.2	2
0	4541	3.25	2
0	4542	3.25	3
0	4543	3.25	4
0	4544	3.25	3
0	4545	3.25	2
0	4586	3.3	2
0	4587	3.3	3
0	4588	3.3	4
0	4589	3.3	3
0	4590	3.3	2
0	4596	3.3	2
0	4597	3.3	3
0	4598	3.3	4
0	4599	3.3	3
0	4600	3.3	2
0	4835	3.35	2
0	4836	3.35	3
0	4837	3.35	4
0	4838	3.35	3
0	4839	3.35	2
0	4880	3.4	2
0	4881	3.4	3
0	4882	3.4	4
0	4883	3.4	3
0	4884	3.4	2
0	4890	3.4	2
0	4891	3.4	3
0	4892	3.4	4
0	4893	3.4	3
0	4894	3.4	2
0	4945	3.45	2
0	4946	3.45	3
0	4947	3.45	4
0	4948	3.45	3
0	4949	3.45	2
0	4990	3.5	2
0	4991	3.5	3
0	4992	3.5	4
0	4993	3.5	3
0	4994	3.5	2
0	5000	3.5	2
0	5001	3.5	3
0	5002	3.5	4
0	5003	3.5	3
0	5004	3.5	2
0	5055	3.55	2
0	5056	3.55	3
0	5057	3.55	4
0	5058	3.55	3
0	5059	3.55	2
0	5100	3.6	2
0	5101	3.6	3
0	5102	3.6	4
0	5103	3.6	3
0	5104	3.6	2
0	5110	3.6	2
0	5111	3.6	3
0	5112	3.6	4
0	5113	3.6	3
0	5114	3.6	2
0	5165	3.65	2
0	5166	3.65	3
0	5167	3.65	4
0	5168	3.65	3
0	5169	3.65	2
0	5210	3.7	2
0	5211	3.7	3
0	5212	3.7	4
0	5213	3.7	3
0	5214	3.7	2
0	5220	3.7	2
0	5221	3.7	3
0	5222	3.7	4
0	5223	3.7	3
0	5224	3.7	2
0	5275	3.75	2
0	5276	3.75	3
0	5277	3.75	4
0	5278	3.75	3
0	5279	3.75	2
0	5320	3.8	2
0	5321	3.8	3
0	5322	3.8	4
0	5323	3.8	3
0	5324	3.8	2
0	5330	3.8	2
0	5331	3.8	3
0	5332	3.8	4
0	5333	3.8	3
0	5334	3.8	2
0	5413	3.85	2
0	5414	3.85	3
0	5415	3.85	4
0	5416	3.85	3
0	5417	3.85	2
0	5642	3.9	2
0	5643	3.9	3
0	5644	3.9	4
0	5645	3.9	3
0	5646	3.9	2
0	5652	3.9	2
0	5653	3.9	3
0	5654	3.9	4
0	5655	3.9	3
0	5656	3.9	2
0	5707	3.95	2
0	5708	3.95	3
0	5709	3.95	4
0	5710	3.95	3
0	5711	3.95	2
0	5757	4	2
0	5758	4	3
0	5759	4	4
0	5760	4	3
0	5761	4	2
0	5767	4	2
0	5768	4	3
0	5769	4	4
0	5770	4	3
0	5771	4	2
0	5822	4.05	2
0	5823	4.05	3
0	5824	4.05	4
0	5825	4.05	3
0	5826	4.05	2
0	5872	4.1	2
0	5873	4.1	3
0	5874	4.1	4
0	5875	4.1	3
0	5876	4.1	2
0	5882	4.1	2
0	5883	4.1	3
0	5884	4.1	4
0	5885	4.1	3
0	5886	4.1	2
0	5942	4.15	2
0	5943	4.15	3
0	5944	4.15	4
0	5945	4.15	3
0	5946	4.15	2
0	5987	4.2	2
0	5988	4.2	3
0	5989	4.2	4
0	5990	4.2	3
0	5991	4.2	2
0	5997	4.2	2
0	5998	4.2	3
0	5999	4.2	4
0	6000	4.2	3
0	6001	4.2	2
0	6052	4.25	2
0	6053	4.25	3
0	6054	4.25	4
0	6055	4.25	3
0	6056	4.25	2
0	6097	4.3	2
0	6098	4.3	3
0	6099	4.3	4
0	6100	4.3	3
0	6101	4.3	2
0	6107	4.3	2
0	6108	4.3	3
0	6109	4.3	4
0	6110	4.3	3
0	6111	4.3	2
0	6172	4.35	2
0	6173	4.35	3
0	6174	4.35	4
0	6175	4.35	3
0	6176	4.35	2
0	6263	4.4	2
0	6264	4.4	3
0	6265	4.4	4
0	6266	4.4	3
0	6267	4.4	2
0	6273	4.4	2
0	6274	4.4	3
0	6275	4.4	4
0	6276	4.4	3
0	6277	4.4	2
0	6512	4.45	2
0	6513	4.45	3
0	6514	4.45	4
0	6515	4.45	3
0	6516	4.45	2
0	6557	4.5	2
0	6558	4.5	3
0	6559	4.5	4
0	6560	4.5	3
0	6561	4.5	2
0	6567	4.5	2
0	6568	4.5	3
0	6569	4.5	4
0	6570	4.5	3
0	6571	4.5	2
0	6668	4.55	2
0	6669	4.55	3
0	6670	4.55	4
0	6671	4.55	3
0	6672	4.55	2
0	6713	4.6	2
0	6714	4.6	3
0	6715	4.6	4
0	6716	4.6	3
0	6717	4.6	2
0	6723	4.6	2
0	6724	4.6	3
0	6725	4.6	4
0	6726	4.6	3
0	6727	4.6	2
0	6778	4.65	2
0	6779	4.65	3
0	6780	4.65	4
0	6781	4.65	3
0	6782	4.65	2
0	6823	4.7	2
0	6824	4.7	3
0	6825	4.7	4
0	6826	4.7	3
0	6827	4.7	2
0	6833	4.7	2
0	6834	4.7	3
0	6835	4.7	4
0	6836	4.7	3
0	6837	4.7	2
0	6888	4.75	2
0	6889	4.75	3
0	6890	4.75	4
0	6891	4.75	3
0	6892	4.75	2
0	6933	4.8	2
0	6934	4.8	3
0	6935	4.8	4
0	6936	4.8	3
0	6937	4.8	2
0	6943	4.8	2
0	6944	4.8	3
0	6945	4.8	4
0	6946	4.8	3
0	6947	4.8	2
0	6998	4.85	2
0	6999	4.85	3
0	7000	4.85	4
0	7001	4.85	3
0	7002	4.85	2
0	7043	4.9	2
0	7044	4.9	3
0	7045	4.9	4
0	7046	4.9	3
0	7047	4.9	2
0	7053	4.9	2
0	7054	4.9	3
0	7055	4.9	4
0	7056	4.9	3
0	7057	4.9	2
0	7136	4.95	2
0	7137	4.95	3
0	7138	4.95	4
0	7139	4.95	3
0	7140	4.95	2
0	7370	5	2
0	7371	5	3
0	7372	5	4
0	7373	5	3
0	7374	5	2
0	7380	5	2
0	7381	5	3
0	7382	5	4
0	7383	5	3
0	7384	5	2
0	7435	5.05	2
0	7436	5.05	3
0	7437	5.05	4
0	7438	5.05	3
0	7439	5.05	2
0	7502	5.1	2
0	7503	5.1	3
0	7504	5.1	4
0	7505	5.1	3
0	7506	5.1	2
0	7512	5.1	2
0	7513	5.1	3
0	7514	5.1	4
0	7515	5.1	3
0	7516	5.1	2
0	7572	5.15	2
0	7573	5.15	3
0	7574	5.15	4
0	7575	5.15	3
0	7576	5.15	2
0	7617	5.2	2
0	7618	5.2	3
0	7619	5.2	4
0	7620	5.2	3
0	7621	5.2	2
0	7627	5.2	2
0	7628	5.2	3
0	7629	5.2	4
0	7630	5.2	3
0	7631	5.2	2
0	7682	5.25	2
0	7683	5.25	3
0	7684	5.25	4
0	7685	5.25	3
0	7686	5.25	2
0	7727	5.3	2
0	7728	5.3	3
0	7729	5.3	4
0	7730	5.3	3
0	7731	5.3	2
0	7737	5.3	2
0	7738	5.3	3
0	7739	5.3	4
0	7740	5.3	3
0	7741	5.3	2
0	7792	5.35	2
0	7793	5.35	3
0	7794	5.35	4
0	7795	5.35	3
0	7796	5.35	2
0	7837	5.4	2
0	7838	5.4	3
0	7839	5.4	4
0	7840	5.4	3
0	7841	5.4	2
0	7847	5.4	2
0	7848	5.4	3
0	7849	5.4	4
0	7850	5.4	3
0	7851	5.4	2
0	7902	5.45	2
0	7903	5.45	3
0	7904	5.45	4
0	7905	5.45	3
0	7906	5.45	2
0	7970	5.5	2
0	7971	5.5	3
0	7972	5.5	4
0	7973	5.5	3
0	7974	5.5	2
0	7980	5.5	2
0	7981	5.5	3
0	7982	5.5	4
0	7983	5.5	3
0	7984	5.5	2
0	8219	5.55	2
0	8220	5.55	3
0	8221	5.55	4
0	8222	5.55	3
0	8223	5.55	2
0	8264	5.6	2
0	8265	5.6	3
0	8266	5.6	4
0	8267	5.6	3
0	8268	5.6	2
0	8274	5.6	2
0	8275	5.6	3
0	8276	5.6	4
0	8277	5.6	3
0	8278	5.6	2
0	8352	5.65	2
0	8353	5.65	3
0	8354	5.65	4
0	8355	5.65	3
0	8356	5.65	2
0	8397	5.7	2
0	8398	5.7	3
0	8399	5.7	4
0	8400	5.7	3
0	8401	5.7	2
0	8407	5.7	2
0	8408	5.7	3
0	8409	5.7	4
0	8410	5.7	3
0	8411	5.7	2
0	8462	5.75	2
0	8463	5.75	3
0	8464	5.75	4
0	8465	5.75	3
0	8466	5.75	2
0	8507	5.8	2
0	8508	5.8	3
0	8509	5.8	4
0	8510	5.8	3
0	8511	5.8	2
0	8517	5.8	2
0	8518	5.8	3
0	8519	5.8	4
0	8520	5.8	3
0	8521	5.8	2
0	8572	5.85	2
0	8573	5.85	3
0	8574	5.85	4
0	8575	5.85	3
0	8576	5.85	2
0	8617	5.9	2
0	8618	5.9	3
0	8619	5.9	4
0	8620	5.9	3
0	8621	5.9	2
0	8627	5.9	2
0	8628	5.9	3
0	8629	5.9	4
0	8630	5.9	3
0	8631	5.9	2
0	8710	5.95	2
0	8711	5.95	3
0	8712	5.95	4
0	8713	5.95	3
0	8714	5.95	2
0	8760	6	2
0	8761	6	3
0	8762	6	4
0	8763	6	3
0	8764	6	2
0	8770	6	2
0	8771	6	3
0	8772	6	4
0	8773	6	3
0	8774	6	2
0	8848	6.05	2
0	8849	6.05	3
0	8850	6.05	4
0	8851	6.05	3
0	8852	6.05	2
0	9082	6.1	2
0	9083	6.1	3
0	9084	6.1	4
0	9085	6.1	3
0	9086	6.1	2
0	9092	6.1	2
0	9093	6.1	3
0	9094	6.1	4
0	9095	6.1	3
0	9096	6.1	2
0	9169	6.15	2
0	9170	6.15	3
0	9171	6.15	4
0	9172	6.15	3
0	9173	6.15	2
0	9237	6.2	2
0	9238	6.2	3
0	9239	6.2	4
0	9240	6.2	3
0	9241	6.2	2
0	9247	6.2	2
0	9248	6.2	3
0	9249	6.2	4
0	9250	6.2	3
0	9251	6.2	2
0	9302	6.25	2
0	9303	6.25	3
0	9304	6.25	4
0	9305	6.25	3
0	9306	6.25	2
0	9364	6.3	2
0	9365	6.3	3
0	9366	6.3	4
0	9367	6.3	3
0	9368	6.3	2
0	9374	6.3	2
0	9375	6.3	3
0	9376	6.3	4
0	9377	6.3	3
0	9378	6.3	2
0	9429	6.35	2
0	9430	6.35	3
0	9431	6.35	4
0	9432	6.35	3
0	9433	6.35	2
0	9474	6.4	2
0	9475	6.4	3
0	9476	6.4	4
0	9477	6.4	3
0	9478	6.4	2
0	9484	6.4	2
0	9485	6.4	3
0	9486	6.4	4
0	9487	6.4	3
0	9488	6.4	2
0	9539	6.45	2
0	9540	6.45	3
0	9541	6.45	4
0	9542	6.45	3
0	9543	6.45	2
0	9589	6.5	2
0	9590	6.5	3
0	9591	6.5	4
0	9592	6.5	3
0	9593	6.5	2
0	9599	6.5	2
0	9600	6.5	3
0	9601	6.5	4
0	9602	6.5	3
0	9603	6.5	2
0	9654	6.55	2
0	9655	6.55	3
0	9656	6.55	4
0	9657	6.55	3
0	9658	6.55	2
0	9704	6.6	2
0	9705	6.6	3
0	9706	6.6	4
0	9707	6.6	3
0	9708	6.6	2
0	9714	6.6	2
0	9715	6.6	3
0	9716	6.6	4
0	9717	6.6	3
0	9718	6.6	2
0	9953	6.65	2
0	9954	6.65	3
0	9955	6.65	4
0	9956	6.65	3
0	9957	6.65	2
0	10021	6.7	2
0	10022	6.7	3
0	10023	6.7	4
0	10024	6.7	3
0	10025	6.7	2
0	10031	6.7	2
0	10032	6.7	3
0	10033	6.7	4
0	10034	6.7	3
0	10035	6.7	2
0	10086	6.75	2
0	10087	6.75	3
0	10088	6.75	4
0	10089	6.75	3
0	10090	6.75	2
0	10131	6.8	2
0	10132	6.8	3
0	10133	6.8	4
0	10134	6.8	3
0	10135	6.8	2
0	10141	6.8	2
0	10142	6.8	3
0	10143	6.8	4
0	10144	6.8	3
0	10145	6.8	2
0	10219	6.85	2
0	10220	6.85	3
0	10221	6.85	4
0	10222	6.85	3
0	10223	6.85	2
0	10264	6.9	2
0	10265	6.9	3
0	10266	6.9	4
0	10267	6.9	3
0	10268	6.9	2
0	10274	6.9	2
0	10275	6.9	3
0	10276	6.9	4
0	10277	6.9	3
0	10278	6.9	2
0	10329	6.95	2
0	10330	6.95	3
0	10331	6.95	4
0	10332	6.95	3
0	10333	6.95	2
0	10379	7	2
0	10380	7	3
0	10381	7	4
0	10382	7	3
0	10383	7	2
0	10389	7	2
0	10390	7	3
0	10391	7	4
0	10392	7	3
0	10393	7	2
0	10444	7.05	2
0	10445	7.05	3
0	10446	7.05	4
0	10447	7.05	3
0	10448	7.05	2
0	10494	7.1	2
0	10495	7.1	3
0	10496	7.1	4
0	10497	7.1	3
0	10498	7.1	2
0	10504	7.1	2
0	10505	7.1	3
0	10506	7.1	4
0	10507	7.1	3
0	10508	7.1	2
0	10564	7.15	2
0	10565	7.15	3
0	10566	7.15	4
0	10567	7.15	3
0	10568	7.15	2
0	10793	7.2	2
0	10794	7.2	3
0	10795	7.2	4
0	10796	7.2	3
0	10797	7.2	2
0	10803	7.2	2
0	10804	7.2	3
0	10805	7.2	4
0	10806	7.2	3
0	10807	7.2	2
0	10881	7.25	2
0	10882	7.25	3
0	10883	7.25	4
0	10884	7.25	3
0	10885	7.25	2
0	10926	7.3	2
0	10927	7.3	3
0	10928	7.3	4
0	10929	7.3	3
0	10930	7.3	2
0	10936	7.3	2
0	10937	7.3	3
0	10938	7.3	4
0	10939	7.3	3
0	10940	7.3	2
0	10991	7.35	2
0	10992	7.35	3
0	10993	7.35	4
0	10994	7.35	3
0	10995	7.35	2
0	11059	7.4	2
0	11060	7.4	3
0	11061	7.4	4
0	11062	7.4	3
0	11063	7.4	2
0	11069	7.4	2
0	11070	7.4	3
0	11071	7.4	4
0	11072	7.4	3
0	11073	7.4	2
0	11124	7.45	2
0	11125	7.45	3
0	11126	7.45	4
0	11127	7.45	3
0	11128	7.45	2
0	11169	7.5	2
0	11170	7.5	3
0	11171	7.5	4
0	11172	7.5	3
0	11173	7.5	2
0	11179	7.5	2
0	11180	7.5	3
0	11181	7.5	4
0	11182	7.5	3
0	11183	7.5	2
0	11257	7.55	2
0	11258	7.55	3
0	11259	7.55	4
0	11260	7.55	3
0	11261	7.55	2
0	11302	7.6	2
0	11303	7.6	3
0	11304	7.6	4
0	11305	7.6	3
0	11306	7.6	2
0	11312	7.6	2
0	11313	7.6	3
0	11314	7.6	4
0	11315	7.6	3
0	11316	7.6	2
0	11367	7.65	2
0	11368	7.65	3
0	11369	7.65	4
0	11370	7.65	3
0	11371	7.65	2
0	11417	7.7	2
0	11418	7.7	3
0	11419	7.7	4
0	11420	7.7	3
0	11421	7.7	2
0	11427	7.7	2
0	11428	7.7	3
0	11429	7.7	4
0	11430	7.7	3
0	11431	7.7	2
0	11666	7.75	2
0	11667	7.75	3
0	11668	7.75	4
0	11669	7.75	3
0	11670	7.75	2
0	11751	7.8	2
0	11752	7.8	3
0	11753	7.8	4
0	11754	7.8	3
0	11755	7.8	2
0	11761	7.8	2
0	11762	7.8	3
0	11763	7.8	4
0	11764	7.8	3
0	11765	7.8	2
0	11816	7.85	2
0	11817	7.85	3
0	11818	7.85	4
0	11819	7.85	3
0	11820	7.85	2
0	11861	7.9	2
0	11862	7.9	3
0	11863	7.9	4
0	11864	7.9	3
0	11865	7.9	2
0	11871	7.9	2
0	11872	7.9	3
0	11873	7.9	4
0	11874	7.9	3
0	11875	7.9	2
0	11948	7.95	2
0	11949	7.95	3
0	11950	7.95	4
0	11951	7.95	3
0	11952	7.95	2
0	11998	8	2
0	11999	8	3
0	12000	8	4
0	12001	8	3
0	12002	8	2
0	12008	8	2
0	12009	8	3
0	12010	8	4
0	12011	8	3
0	12012	8	2
0	12063	8.05	2
0	12064	8.05	3
0	12065	8.05	4
0	12066	8.05	3
0	12067	8.05	2
0	12113	8.1	2
0	12114	8.1	3
0	12115	8.1	4
0	12116	8.1	3
0	12117	8.1	2
0	12123	8.1	2
0	12124	8.1	3
0	12125	8.1	4
0	12126	8.1	3
0	12127	8.1	2
0	12183	8.15	2
0	12184	8.15	3
0	12185	8.15	4
0	12186	8.15	3
0	12187	8.15	2
0	12228	8.2	2
0	12229	8.2	3
0	12230	8.2	4
0	12231	8.2	3
0	12232	8.2	2
0	12238	8.2	2
0	12239	8.2	3
0	12240	8.2	4
0	12241	8.2	3
0	12242	8.2	2
0	12293	8.25	2
0	12294	8.25	3
0	12295	8.25	4
0	12296	8.25	3
0	12297	8.25	2
0	12522	8.3	2
0	12523	8.3	3
0	12524	8.3	4
0	12525	8.3	3
0	12526	8.3	2
0	12532	8.3	2
0	12533	8.3	3
0	12534	8.3	4
0	12535	8.3	3
0	12536	8.3	2
0	12610	8.35	2
0	12611	8.35	3
0	12612	8.35	4
0	12613	8.35	3
0	12614	8.35	2
0	12655	8.4	2
0	12656	8.4	3
0	12657	8.4	4
0	12658	8.4	3
0	12659	8.4	2
0	12665	8.4	2
0	12666	8.4	3
0	12667	8.4	4
0	12668	8.4	3
0	12669	8.4	2
0	12720	8.45	2
0	12721	8.45	3
0	12722	8.45	4
0	12723	8.45	3
0	12724	8.45	2
0	12788	8.5	2
0	12789	8.5	3
0	12790	8.5	4
0	12791	8.5	3
0	12792	8.5	2
0	12798	8.5	2
0	12799	8.5	3
0	12800	8.5	4
0	12801	8.5	3
0	12802	8.5	2
0	12853	8.55	2
0	12854	8.55	3
0	12855	8.55	4
0	12856	8.55	3
0	12857	8.55	2
0	12898	8.6	2
0	12899	8.6	3
0	12900	8.6	4
0	12901	8.6	3
0	12902	8.6	2
0	12908	8.6	2
0	12909	8.6	3
0	12910	8.6	4
0	12911	8.6	3
0	12912	8.6	2
0	12963	8.65	2
0	12964	8.65	3
0	12965	8.65	4
0	12966	8.65	3
0	12967	8.65	2
0	13008	8.7	2
0	13009	8.7	3
0	13010	8.7	4
0	13011	8.7	3
0	13012	8.7	2
0	13018	8.7	2
0	13019	8.7	3
0	13020	8.7	4
0	13021	8.7	3
0	13022	8.7	2
0	13073	8.75	2
0	13074	8.75	3
0	13075	8.75	4
0	13076	8.75	3
0	13077	8.75	2
0	13118	8.8	2
0	13119	8.8	3
0	13120	8.8	4
0	13121	8.8	3
0	13122	8.8	2
0	13128	8.8	2
0	13129	8.8	3
0	13130	8.8	4
0	13131	8.8	3
0	13132	8.8	2
0	13367	8.85	2
0	13368	8.85	3
0	13369	8.85	4
0	13370	8.85	3
0	13371	8.85	2
0	13435	8.9	2
0	13436	8.9	3
0	13437	8.9	4
0	13438	8.9	3
0	13439	8.9	2
0	13445	8.9	2
0	13446	8.9	3
0	13447	8.9	4
0	13448	8.9	3
0	13449	8.9	2
0	13500	8.95	2
0	13501	8.95	3
0	13502	8.95	4
0	13503	8.95	3
0	13504	8.95	2
0	13550	9	2
0	13551	9	3
0	13552	9	4
0	13553	9	3
0	13554	9	2
0	13560	9	2
0	13561	9	3
0	13562	9	4
0	13563	9	3
0	13564	9	2
0	13632	9.05	2
0	13633	9.05	3
0	13634	9.05	4
0	13635	9.05	3
0	13636	9.05	2
0	13682	9.1	2
0	13683	9.1	3
0	13684	9.1	4
0	13685	9.1	3
0	13686	9.1	2
0	13692	9.1	2
0	13693	9.1	3
0	13694	9.1	4
0	13695	9.1	3
0	13696	9.1	2
0	13775	9.15	2
0	13776	9.15	3
0	13777	9.15	4
0	13778	9.15	3
0	13779	9.15	2
0	13820	9.2	2
0	13821	9.2	3
0	13822	9.2	4
0	13823	9.2	3
0	13824	9.2	2
0	13830	9.2	2
0	13831	9.2	3
0	13832	9.2	4
0	13833	9.2	3
0	13834	9.2	2
0	13885	9.25	2
0	13886	9.25	3
0	13887	9.25	4
0	13888	9.25	3
0	13889	9.25	2
0	13953	9.3	2
0	13954	9.3	3
0	13955	9.3	4
0	13956	9.3	3
0	13957	9.3	2
0	13963	9.3	2
0	13964	9.3	3
0	13965	9.3	4
0	13966	9.3	3
0	13967	9.3	2
0	14018	9.35	2
0	14019	9.35	3
0	14020	9.35	4
0	14021	9.35	3
0	14022	9.35	2
0	14264	9.4	2
0	14265	9.4	3
0	14266	9.4	4
0	14267	9.4	3
0	14268	9.4	2
0	14274	9.4	2
0	14275	9.4	3
0	14276	9.4	4
0	14277	9.4	3
0	14278	9.4	2
0	14352	9.45	2
0	14353	9.45	3
0	14354	9.45	4
0	14355	9.45	3
0	14356	9.45	2
0	14397	9.5	2
0	14398	9.5	3
0	14399	9.5	4
0	14400	9.5	3
0	14401	9.5	2
0	14407	9.5	2
0	14408	9.5	3
0	14409	9.5	4
0	14410	9.5	3
0	14411	9.5	2
0	14479	9.55	2
0	14480	9.55	3
0	14481	9.55	4
0	14482	9.55	3
0	14483	9.55	2
0	14541	9.6	2
0	14542	9.6	3
0	14543	9.6	4
0	14544	9.6	3
0	14545	9.6	2
0	14551	9.6	2
0	14552	9.6	3
0	14553	9.6	4
0	14554	9.6	3
0	14555	9.6	2
0	14606	9.65	2
0	14607	9.65	3
0	14608	9.65	4
0	14609	9.65	3
0	14610	9.65	2
0	14674	9.7	2
0	14675	9.7	3
0	14676	9.7	4
0	14677	9.7	3
0	14678	9.7	2
0	14684	9.7	2
0	14685	9.7	3
0	14686	9.7	4
0	14687	9.7	3
0	14688	9.7	2
0	14739	9.75	2
0	14740	9.75	3
0	14741	9.75	4
0	14742	9.75	3
0	14743	9.75	2
0	14784	9.8	2
0	14785	9.8	3
0	14786	9.8	4
0	14787	9.8	3
0	14788	9.8	2
0	14794	9.8	2
0	14795	9.8	3
0	14796	9.8	4
0	14797	9.8	3
0	14798	9.8	2
0	14854	9.85	2
0	14855	9.85	3
0	14856	9.85	4
0	14857	9.85	3
0	14858	9.85	2
0	14899	9.9	2
0	14900	9.9	3
0	14901	9.9	4
0	14902	9.9	3
0	14903	9.9	2
0	14909	9.9	2
0	14910	9.9	3
0	14911	9.9	4
0	14912	9.9	3
0	14913	9.9	2
0	15171	9.95	2
0	15172	9.95	3
0	15173	9.95	4
0	15174	9.95	3
0	15175	9.95	2
0	15244	10	2
0	15245	10	3
0	15246	10	4
0	15247	10	3
0	15248	10	2
0	15254	10	2
0	15255	10	3
0	15256	10	4
0	15257	10	3
0	15258	10	2
0	15309	10.05	2
0	15310	10.05	3
0	15311	10.05	4
0	15312	10.05	3
0	15313	10.05	2
0	15376	10.1	2
0	15377	10.1	3
0	15378	10.1	4
0	15379	10.1	3
0	15380	10.1	2
0	15386	10.1	2
0	15387	10.1	3
0	15388	10.1	4
0	15389	10.1	3
0	15390	10.1	2
0	15451	10.15	2
0	15452	10.15	3
0	15453	10.15	4
0	15454	10.15	3
0	15455	10.15	2
0	15496	10.2	2
0	15497	10.2	3
0	15498	10.2	4
0	15499	10.2	3
0	15500	10.2	2
0	15506	10.2	2
0	15507	10.2	3
0	15508	10.2	4
0	15509	10.2	3
0	15510	10.2	2
0	15561	10.25	2
0	15562	10.25	3
0	15563	10.25	4
0	15564	10.25	3
0	15565	10.25	2
0	15606	10.3	2
0	15607	10.3	3
0	15608	10.3	4
0	15609	10.3	3
0	15610	10.3	2
0	15616	10.3	2
0	15617	10.3	3
0	15618	10.3	4
0	15619	10.3	3
0	15620	10.3	2
0	15671	10.35	2
0	15672	10.35	3
0	15673	10.35	4
0	15674	10.35	3
0	15675	10.35	2
0	15716	10.4	2
0	15717	10.4	3
0	15718	10.4	4
0	15719	10.4	3
0	15720	10.4	2
0	15726	10.4	2
0	15727	10.4	3
0	15728	10.4	4
0	15729	10.4	3
0	15730	10.4	2
0	15781	10.45	2
0	15782	10.45	3
0	15783	10.45	4
0	15784	10.45	3
0	15785	10.45	2
0	16027	10.5	2
0	16028	10.5	3
0	16029	10.5	4
0	16030	10.5	3
0	16031	10.5	2
0	16037	10.5	2
0	16038	10.5	3
0	16039	10.5	4
0	16040	10.5	3
0	16041	10.5	2
0	16092	10.55	2
0	16093	10.55	3
0	16094	10.55	4
0	16095	10.55	3
0	16096	10.55	2
0	16137	10.6	2
0	16138	10.6	3
0	16139	10.6	4
0	16140	10.6	3
0	16141	10.6	2
0	16147	10.6	2
0	16148	10.6	3
0	16149	10.6	4
0	16150	10.6	3
0	16151	10.6	2
0	16219	10.65	2
0	16220	10.65	3
0	16221	10.65	4
0	16222	10.65	3
0	16223	10.65	2
0	16264	10.7	2
0	16265	10.7	3
0	16266	10.7	4
0	16267	10.7	3
0	16268	10.7	2
0	16274	10.7	2
0	16275	10.7	3
0	16276	10.7	4
0	16277	10.7	3
0	16278	10.7	2
0	16329	10.75	2
0	16330	10.75	3
0	16331	10.75	4
0	16332	10.75	3
0	16333	10.75	2
0	16374	10.8	2
0	16375	10.8	3
0	16376	10.8	4
0	16377	10.8	3
0	16378	10.8	2
0	16384	10.8	2
0	16385	10.8	3
0	16386	10.8	4
0	16387	10.8	3
0	16388	10.8	2
0	16439	10.85	2
0	16440	10.85	3
0	16441	10.85	4
0	16442	10.85	3
0	16443	10.85	2
0	16484	10.9	2
0	16485	10.9	3
0	16486	10.9	4
0	16487	10.9	3
0	16488	10.9	2
0	16494	10.9	2
0	16495	10.9	3
0	16496	10.9	4
0	16497	10.9	3
0	16498	10.9	2
0	16549	10.95	2
0	16550	10.95	3
0	16551	10.95	4
0	16552	10.95	3
0	16553	10.95	2
0	16599	11	2
0	16600	11	3
0	16601	11	4
0	16602	11	3
0	16603	11	2
0	16609	11	2
0	16610	11	3
0	16611	11	4
0	16612	11	3
0	16613	11	2
0	16871	11.05	2
0	16872	11.05	3
0	16873	11.05	4
0	16874	11.05	3
0	16875	11.05	2
0	16921	11.1	2
0	16922	11.1	3
0	16923	11.1	4
0	16924	11.1	3
0	16925	11.1	2
0	16931	11.1	2
0	16932	11.1	3
0	16933	11.1	4
0	16934	11.1	3
0	16935	11.1	2
0	16991	11.15	2
0	16992	11.15	3
0	16993	11.15	4
0	16994	11.15	3
0	16995	11.15	2
0	17059	11.2	2
0	17060	11.2	3
0	17061	11.2	4
0	17062	11.2	3
0	17063	11.2	2
0	17069	11.2	2
0	17070	11.2	3
0	17071	11.2	4
0	17072	11.2	3
0	17073	11.2	2
0	17124	11.25	2
0	17125	11.25	3
0	17126	11.25	4
0	17127	11.25	3
0	17128	11.25	2
0	17174	11.3	2
0	17175	11.3	3
0	17176	11.3	4
0	17177	11.3	3
0	17178	11.3	2
0	17184	11.3	2
0	17185	11.3	3
0	17186	11.3	4
0	17187	11.3	3
0	17188	11.3	2
0	17239	11.35	2
0	17240	11.35	3
0	17241	11.35	4
0	17242	11.35	3
0	17243	11.35	2
0	17284	11.4	2
0	17285	11.4	3
0	17286	11.4	4
0	17287	11.4	3
0	17288	11.4	2
0	17294	11.4	2
0	17295	11.4	3
0	17296	11.4	4
0	17297	11.4	3
0	17298	11.4	2
0	17354	11.45	2
0	17355	11.45	3
0	17356	11.45	4
0	17357	11.45	3
0	17358	11.45	2
0	17399	11.5	2
0	17400	11.5	3
0	17401	11.5	4
0	17402	11.5	3
0	17403	11.5	2
0	17409	11.5	2
0	17410	11.5	3
0	17411	11.5	4
0	17412	11.5	3
0	17413	11.5	2
0	17464	11.55	2
0	17465	11.55	3
0	17466	11.55	4
0	17467	11.55	3
0	17468	11.55	2
0	17712	11.6	2
0	17713	11.6	3
0	17714	11.6	4
0	17715	11.6	3
0	17716	11.6	2
0	17722	11.6	2
0	17723	11.6	3
0	17724	11.6	4
0	17725	11.6	3
0	17726	11.6	2
0	17786	11.65	2
0	17787	11.65	3
0	17788	11.65	4
0	17789	11.65	3
0	17790	11.65	2
0	17831	11.7	2
0	17832	11.7	3
0	17833	11.7	4
0	17834	11.7	3
0	17835	11.7	2
0	17841	11.7	2
0	17842	11.7	3
0	17843	11.7	4
0	17844	11.7	3
0	17845	11.7	2
0	17919	11.75	2
0	17920	11.75	3
0	17921	11.75	4
0	17922	11.75	3
0	17923	11.75	2
0	17964	11.8	2
0	17965	11.8	3
0	17966	11.8	4
0	17967	11.8	3
0	17968	11.8	2
0	17974	11.8	2
0	17975	11.8	3
0	17976	11.8	4
0	17977	11.8	3
0	17978	11.8	2
0	18029	11.85	2
0	18030	11.85	3
0	18031	11.85	4
0	18032	11.85	3
0	18033	11.85	2
0	18074	11.9	2
0	18075	11.9	3
0	18076	11.9	4
0	18077	11.9	3
0	18078	11.9	2
0	18084	11.9	2
0	18085	11.9	3
0	18086	11.9	4
0	18087	11.9	3
0	18088	11.9	2
0	18139	11.95	2
0	18140	11.95	3
0	18141	11.95	4
0	18142	11.95	3
0	18143	11.95	2
0	18189	12	2
0	18190	12	3
0	18191	12	4
0	18192	12	3
0	18193	12	2
0	18199	12	2
0	18200	12	3
0	18201	12	4
0	18202	12	3
0	18203	12	2
0	18254	12.05	2
0	18255	12.05	3
0	18256	12.05	4
0	18257	12.05	3
0	18258	12.05	2
0	18304	12.1	2
0	18305	12.1	3
0	18306	12.1	4
0	18307	12.1	3
0	18308	12.1	2
0	18314	12.1	2
0	18315	12.1	3
0	18316	12.1	4
0	18317	12.1	3
0	18318	12.1	2
0	18598	12.15	2
0	18599	12.15	3
0	18600	12.15	4
0	18601	12.15	3
0	18602	12.15	2
0	18724	12.2	2
0	18725	12.2	3
0	18726	12.2	4
0	18727	12.2	3
0	18728	12.2	2
0	18734	12.2	2
0	18735	12.2	3
0	18736	12.2	4
0	18737	12.2	3
0	18738	12.2	2
0	18853	12.25	2
0	18854	12.25	3
0	18855	12.25	4
0	18856	12.25	3
0	18857	12.25	2
0	18983	12.3	2
0	18984	12.3	3
0	18985	12.3	4
0	18986	12.3	3
0	18987	12.3	2
0	18993	12.3	2
0	18994	12.3	3
0	18995	12.3	4
0	18996	12.3	3
0	18997	12.3	2
0	19084	12.35	2
0	19085	12.35	3
0	19086	12.35	4
0	19087	12.35	3
0	19088	12.35	2
0	19129	12.4	2
0	19130	12.4	3
0	19131	12.4	4
0	19132	12.4	3
0	19133	12.4	2
0	19139	12.4	2
0	19140	12.4	3
0	19141	12.4	4
0	19142	12.4	3
0	19143	12.4	2
0	19194	12.45	2
0	19195	12.45	3
0	19196	12.45	4
0	19197	12.45	3
0	19198	12.45	2
0	19239	12.5	2
0	19240	12.5	3
0	19241	12.5	4
0	19242	12.5	3
0	19243	12.5	2
0	19249	12.5	2
0	19250	12.5	3
0	19251	12.5	4
0	19252	12.5	3
0	19253	12.5	2
0	19304	12.55	2
0	19305	12.55	3
0	19306	12.55	4
0	19307	12.55	3
0	19308	12.55	2
0	19349	12.6	2
0	19350	12.6	3
0	19351	12.6	4
0	19352	12.6	3
0	19353	12.6	2
0	19359	12.6	2
0	19360	12.6	3
0	19361	12.6	4
0	19362	12.6	3
0	19363	12.6	2
0	19414	12.65	2
0	19415	12.65	3
0	19416	12.65	4
0	19417	12.65	3
0	19418	12.65	2
0	19639	12.7	2
0	19640	12.7	3
0	19641	12.7	4
0	19642	12.7	3
0	19643	12.7	2
0	19649	12.7	2
0	19650	12.7	3
0	19651	12.7	4
0	19652	12.7	3
0	19653	12.7	2
0	19713	12.75	2
0	19714	12.75	3
0	19715	12.75	4
0	19716	12.75	3
0	19717	12.75	2
0	19763	12.8	2
0	19764	12.8	3
0	19765	12.8	4
0	19766	12.8	3
0	19767	12.8	2
0	19773	12.8	2
0	19774	12.8	3
0	19775	12.8	4
0	19776	12.8	3
0	19777	12.8	2
0	19828	12.85	2
0	19829	12.85	3
0	19830	12.85	4
0	19831	12.85	3
0	19832	12.85	2
0	19890	12.9	2
0	19891	12.9	3
0	19892	12.9	4
0	19893	12.9	3
0	19894	12.9	2
0	19900	12.9	2
0	19901	12.9	3
0	19902	12.9	4
0	19903	12.9	3
0	19904	12.9	2
0	19955	12.95	2
0	19956	12.95	3
0	19957	12.95	4
0	19958	12.95	3
0	19959	12.95	2
0	20005	13	2
0	20006	13	3
0	20007	13	4
0	20008	13	3
0	20009	13	2
0	20015	13	2
0	20016	13	3
0	20017	13	4
0	20018	13	3
0	20019	13	2
0	20075	13.05	2
0	20076	13.05	3
0	20077	13.05	4
0	20078	13.05	3
0	20079	13.05	2
0	20125	13.1	2
0	20126	13.1	3
0	20127	13.1	4
0	20128	13.1	3
0	20129	13.1	2
0	20135	13.1	2
0	20136	13.1	3
0	20137	13.1	4
0	20138	13.1	3
0	20139	13.1	2
0	20196	13.15	2
0	20197	13.15	3
0	20198	13.15	4
0	20199	13.15	3
0	20200	13.15	2
0	20246	13.2	2
0	20247	13.2	3
0	20248	13.2	4
0	20249	13.2	3
0	20250	13.2	2
0	20256	13.2	2
0	20257	13.2	3
0	20258	13.2	4
0	20259	13.2	3
0	20260	13.2	2
0	20536	13.25	2
0	20537	13.25	3
0	20538	13.25	4
0	20539	13.25	3
0	20540	13.25	2
0	20665	13.3	2
0	20666	13.3	3
0	20667	13.3	4
0	20668	13.3	3
0	20669	13.3	2
0	20675	13.3	2
0	20676	13.3	3
0	20677	13.3	4
0	20678	13.3	3
0	20679	13.3	2
0	20806	13.35	2
0	20807	13.35	3
0	20808	13.35	4
0	20809	13.35	3
0	20810	13.35	2
0	20908	13.4	2
0	20909	13.4	3
0	20910	13.4	4
0	20911	13.4	3
0	20912	13.4	2
0	20918	13.4	2
0	20919	13.4	3
0	20920	13.4	4
0	20921	13.4	3
0	20922	13.4	2
0	21030	13.45	2
0	21031	13.45	3
0	21032	13.45	4
0	21033	13.45	3
0	21034	13.45	2
0	21075	13.5	2
0	21076	13.5	3
0	21077	13.5	4
0	21078	13.5	3
0	21079	13.5	2
0	21085	13.5	2
0	21086	13.5	3
0	21087	13.5	4
0	21088	13.5	3
0	21089	13.5	2
0	21140	13.55	2
0	21141	13.55	3
0	21142	13.55	4
0	21143	13.55	3
0	21144	13.55	2
0	21185	13.6	2
0	21186	13.6	3
0	21187	13.6	4
0	21188	13.6	3
0	21189	13.6	2
0	21195	13.6	2
0	21196	13.6	3
0	21197	13.6	4
0	21198	13.6	3
0	21199	13.6	2
0	21250	13.65	2
0	21251	13.65	3
0	21252	13.65	4
0	21253	13.65	3
0	21254	13.65	2
0	21295	13.7	2
0	21296	13.7	3
0	21297	13.7	4
0	21298	13.7	3
0	21299	13.7	2
0	21305	13.7	2
0	21306	13.7	3
0	21307	13.7	4
0	21308	13.7	3
0	21309	13.7	2
0	21360	13.75	2
0	21361	13.75	3
0	21362	13.75	4
0	21363	13.75	3
0	21364	13.75	2
0	21589	13.8	2
0	21590	13.8	3
0	21591	13.8	4
0	21592	13.8	3
0	21593	13.8	2
0	21599	13.8	2
0	21600	13.8	3
0	21601	13.8	4
0	21602	13.8	3
0	21603	13.8	2
0	21654	13.85	2
0	21655	13.85	3
0	21656	13.85	4
0	21657	13.85	3
0	21658	13.85	2
0	21704	13.9	2
0	21705	13.9	3
0	21706	13.9	4
0	21707	13.9	3
0	21708	13.9	2
0	21714	13.9	2
0	21715	13.9	3
0	21716	13.9	4
0	21717	13.9	3
0	21718	13.9	2
0	21769	13.95	2
0	21770	13.95	3
0	21771	13.95	4
0	21772	13.95	3
0	21773	13.95	2
0	21818	14	2
0	21819	14	3
0	21820	14	4
0	21821	14	3
0	21822	14	2
0	21828	14	2
0	21829	14	3
0	21830	14	4
0	21831	14	3
0	21832	14	2
0	21883	14.05	2
0	21884	14.05	3
0	21885	14.05	4
0	21886	14.05	3
0	21887	14.05	2
0	21933	14.1	2
0	21934	14.1	3
0	21935	14.1	4
0	21936	14.1	3
0	21937	14.1	2
0	21943	14.1	2
0	21944	14.1	3
0	21945	14.1	4
0	21946	14.1	3
0	21947	14.1	2
0	22004	14.15	2
0	22005	14.15	3
0	22006	14.15	4
0	22007	14.15	3
0	22008	14.15	2
0	22049	14.2	2
0	22050	14.2	3
0	22051	14.2	4
0	22052	14.2	3
0	22053	14.2	2
0	22059	14.2	2
0	22060	14.2	3
0	22061	14.2	4
0	22062	14.2	3
0	22063	14.2	2
0	22114	14.25	2
0	22115	14.25	3
0	22116	14.25	4
0	22117	14.25	3
0	22118	14.25	2
0	22234	14.3	2
0	22235	14.3	3
0	22236	14.3	4
0	22237	14.3	3
0	22238	14.3	2
0	22244	14.3	2
0	22245	14.3	3
0	22246	14.3	4
0	22247	14.3	3
0	22248	14.3	2
1	61	0.1	-nan
1	63	0.1	-nan
1	65	0.1	-nan
1	67	0.1	-nan
1	69	0.1	-nan
1	1171	1.1	-nan
1	1172	1.1	-nan
1	1173	1.1	-nan
1	1174	1.1	-nan
1	1175	1.1	-nan
1	2813	2.1	-nan
1	2814	2.1	-nan
1	2815	2.1	-nan
1	2816	2.1	-nan
1	2817	2.1	-nan
1	4356	3.1	-nan
1	4357	3.1	-nan
1	4358	3.1	-nan
1	4359	3.1	-nan
1	4360	3.1	-nan
1	5867	4.1	-nan
1	5868	4.1	-nan
1	5869	4.1	-nan
1	5870	4.1	-nan
1	5871	4.1	-nan
1	7497	5.1	-nan
1	7498	5.1	-nan
1	7499	5.1	-nan
1	7500	5.1	-nan
1	7501	5.1	-nan
1	9077	6.1	-nan
1	9078	6.1	-nan
1	9079	6.1	-nan
1	9080	6.1	-nan
1	9081	6.1	-nan
1	10489	7.1	-nan
1	10490	7.1	-nan
1	10491	7.1	-nan
1	10492	7.1	-nan
1	10493	7.1	-nan
1	12108	8.1	-nan
1	12109	8.1	-nan
1	12110	8.1	-nan
1	12111	8.1	-nan
1	12112	8.1	-nan
1	13677	9.1	-nan
1	13678	9.1	-nan
1	13679	9.1	-nan
1	13680	9.1	-nan
1	13681	9.1	-nan
1	15371	10.1	-nan
1	15372	10.1	-nan
1	15373	10.1	-nan
1	15374	10.1	-nan
1	15375	10.1	-nan
1	16916	11.1	-nan
1	16917	11.1	-nan
1	16918	11.1	-nan
1	16919	11.1	-nan
1	16920	11.1	-nan
1	18299	12.1	-nan
1	18300	12.1	-nan
1	18301	12.1	-nan
1	18302	12.1	-nan
1	18303	12.1	-nan
1	20120	13.1	-nan
1	20121	13.1	-nan
1	20122	13.1	-nan
1	20123	13.1	-nan
1	20124	13.1	-nan
1	21928	14.1	-nan
1	21929	14.1	-nan
1	21930	14.1	-nan
1	21931	14.1	-nan
1	21932	14.1	-nan
2	18649	12.152897643805	141
2	18676	12.166737643805	282
2	18694	12.180577643805	423
2	18712	12.194417643805	564
2	18795	12.208257643805	705
2	18813	12.222097643805	846
2	18831	12.235937643805	987
2	18849	12.249777643805	1128
2	18914	12.263617643805	1269
2	18953	12.277457643805	1410
2	18971	12.291297643805	1551
2	19054	12.305137643805	1692
2	19072	12.318977643805	1833
2	20531	13.248194624913	1974
2	20595	13.252834624913	2115
2	20614	13.262034624913	2256
2	20633	13.275874624913	2397
2	20652	13.289714624913	2538
2	20736	13.303554624913	2679
2	20755	13.317394624913	2820
2	20774	13.331234624913	2961
2	20793	13.345074624913	3102
2	20857	13.358914624913	3243
2	20876	13.372754624913	3384
2	20895	13.386594624913	3525
2	20979	13.400434624913	3666
2	20998	13.414274624913	3807
2	21017	13.428114624913	3948
2	22218	14.283910996648	4089
2	22381	14.325430996648	4230
3	18649	12.152897643805	141
3	18676	12.166737643805	282
3	18694	12.180577643805	423
3	18712	12.194417643805	564
3	18795	12.208257643805	705
3	18813	12.222097643805	846
3	18831	12.235937643805	987
3	18849	12.249777643805	1128
3	18914	12.263617643805	1269
3	18953	12.277457643805	1410
3	18971	12.291297643805	1551
3	19054	12.305137643805	1692
3	19072	12.318977643805	1833
3	20531	13.248194624913	1974
3	20595	13.252834624913	2115
3	20614	13.262034624913	2256
3	20633	13.275874624913	2397
3	20652	13.289714624913	2538
3	20736	13.303554624913	2679
3	20755	13.317394624913	2820
3	20774	13.331234624913	2961
3	20793	13.345074624913	3102
3	20857	13.358914624913	3243
3	20876	13.372754624913	3384
3	20895	13.386594624913	3525
3	20979	13.400434624913	3666
3	20998	13.414274624913	3807
3	21017	13.428114624913	3948
3	22218	14.283910996648	4089
3	22381	14.325430996648	4230
0	22463	14.35	2
0	22464	14.35	3
0	22465	14.35	4
0	22466	14.35	3
0	22467	14.35	2
0	22600	14.4	2
0	22601	14.4	3
0	22602	14.4	4
0	22603	14.4	3
0	22604	14.4	2
0	22610	14.4	2
0	22611	14.4	3
0	22612	14.4	4
0	22613	14.4	3
0	22614	14.4	2
0	22718	14.45	2
0	22719	14.45	3
0	22720	14.45	4
0	22721	14.45	3
0	22722	14.45	2
0	22811	14.5	2
0	22812	14.5	3
0	22813	14.5	4
0	22814	14.5	3
0	22815	14.5	2
0	22821	14.5	2
0	22822	14.5	3
0	22823	14.5	4
0	22824	14.5	3
0	22825	14.5	2
0	22924	14.55	2
0	22925	14.55	3
0	22926	14.55	4
0	22927	14.55	3
0	22928	14.55	2
0	22969	14.6	2
0	22970	14.6	3
0	22971	14.6	4
0	22972	14.6	3
0	22973	14.6	2
0	22979	14.6	2
0	22980	14.6	3
0	22981	14.6	4
0	22982	14.6	3
0	22983	14.6	2
0	23057	14.65	2
0	23058	14.65	3
0	23059	14.65	4
0	23060	14.65	3
0	23061	14.65	2
0	23102	14.7	2
0	23103	14.7	3
0	23104	14.7	4
0	23105	14.7	3
0	23106	14.7	2
0	23112	14.7	2
0	23113	14.7	3
0	23114	14.7	4
0	23115	14.7	3
0	23116	14.7	2
0	23167	14.75	2
0	23168	14.75	3
0	23169	14.75	4
0	23170	14.75	3
0	23171	14.75	2
0	23235	14.8	2
0	23236	14.8	3
0	23237	14.8	4
0	23238	14.8	3
0	23239	14.8	2
0	23245	14.8	2
0	23246	14.8	3
0	23247	14.8	4
0	23248	14.8	3
0	23249	14.8	2
0	23317	14.85	2
0	23318	14.85	3
0	23319	14.85	4
0	23320	14.85	3
0	23321	14.85	2
0	23546	14.9	2
0	23547	14.9	3
0	23548	14.9	4
0	23549	14.9	3
0	23550	14.9	2
0	23556	14.9	2
0	23557	14.9	3
0	23558	14.9	4
0	23559	14.9	3
0	23560	14.9	2
0	23616	14.95	2
0	23617	14.95	3
0	23618	14.95	4
0	23619	14.95	3
0	23620	14.95	2
0	23679	15	2
0	23680	15	3
0	23681	15	4
0	23682	15	3
0	23683	15	2
0	23689	15	2
0	23690	15	3
0	23691	15	4
0	23692	15	3
0	23693	15	2
0	23767	15.05	2
0	23768	15.05	3
0	23769	15.05	4
0	23770	15.05	3
0	23771	15.05	2
0	23817	15.1	2
0	23818	15.1	3
0	23819	15.1	4
0	23820	15.1	3
0	23821	15.1	2
0	23827	15.1	2
0	23828	15.1	3
0	23829	15.1	4
0	23830	15.1	3
0	23831	15.1	2
0	23888	15.15	2
0	23889	15.15	3
0	23890	15.15	4
0	23891	15.15	3
0	23892	15.15	2
0	23938	15.2	2
0	23939	15.2	3
0	23940	15.2	4
0	23941	15.2	3
0	23942	15.2	2
0	23948	15.2	2
0	23949	15.2	3
0	23950	15.2	4
0	23951	15.2	3
0	23952	15.2	2
0	24003	15.25	2
0	24004	15.25	3
0	24005	15.25	4
0	24006	15.25	3
0	24007	15.25	2
0	24048	15.3	2
0	24049	15.3	3
0	24050	15.3	4
0	24051	15.3	3
0	24052	15.3	2
0	24058	15.3	2
0	24059	15.3	3
0	24060	15.3	4
0	24061	15.3	3
0	24062	15.3	2
0	24113	15.35	2
0	24114	15.35	3
0	24115	15.35	4
0	24116	15.35	3
0	24117	15.35	2
0	24163	15.4	2
0	24164	15.4	3
0	24165	15.4	4
0	24166	15.4	3
0	24167	15.4	2
0	24173	15.4	2
0	24174	15.4	3
0	24175	15.4	4
0	24176	15.4	3
0	24177	15.4	2
0	24427	15.45	2
0	24428	15.45	3
0	24429	15.45	4
0	24430	15.45	3
0	24431	15.45	2
0	24499	15.5	2
0	24500	15.5	3
0	24501	15.5	4
0	24502	15.5	3
0	24503	15.5	2
0	24509	15.5	2
0	24510	15.5	3
0	24511	15.5	4
0	24512	15.5	3
0	24513	15.5	2
0	24564	15.55	2
0	24565	15.55	3
0	24566	15.55	4
0	24567	15.55	3
0	24568	15.55	2
0	24609	15.6	2
0	24610	15.6	3
0	24611	15.6	4
0	24612	15.6	3
0	24613	15.6	2
0	24619	15.6	2
0	24620	15.6	3
0	24621	15.6	4
0	24622	15.6	3
0	24623	15.6	2
0	24674	15.65	2
0	24675	15.65	3
0	24676	15.65	4
0	24677	15.65	3
0	24678	15.65	2
0	24719	15.7	2
0	24720	15.7	3
0	24721	15.7	4
0	24722	15.7	3
0	24723	15.7	2
0	24729	15.7	2
0	24730	15.7	3
0	24731	15.7	4
0	24732	15.7	3
0	24733	15.7	2
0	24784	15.75	2
0	24785	15.75	3
0	24786	15.75	4
0	24787	15.75	3
0	24788	15.75	2
0	24829	15.8	2
0	24830	15.8	3
0	24831	15.8	4
0	24832	15.8	3
0	24833	15.8	2
0	24839	15.8	2
0	24840	15.8	3
0	24841	15.8	4
0	24842	15.8	3
0	24843	15.8	2
0	24894	15.85	2
0	24895	15.85	3
0	24896	15.85	4
0	24897	15.85	3
0	24898	15.85	2
0	24939	15.9	2
0	24940	15.9	3
0	24941	15.9	4
0	24942	15.9	3
0	24943	15.9	2
0	24949	15.9	2
0	24950	15.9	3
0	24951	15.9	4
0	24952	15.9	3
0	24953	15.9	2
0	25004	15.95	2
0	25005	15.95	3
0	25006	15.95	4
0	25007	15.95	3
0	25008	15.95	2
0	25234	16	2
0	25235	16	3
0	25236	16	4
0	25237	16	3
0	25238	16	2
0	25244	16	2
0	25245	16	3
0	25246	16	4
0	25247	16	3
0	25248	16	2
0	25299	16.05	2
0	25300	16.05	3
0	25301	16.05	4
0	25302	16.05	3
0	25303	16.05	2
0	25349	16.1	2
0	25350	16.1	3
0	25351	16.1	4
0	25352	16.1	3
0	25353	16.1	2
0	25359	16.1	2
0	25360	16.1	3
0	25361	16.1	4
0	25362	16.1	3
0	25363	16.1	2
0	25420	16.15	2
0	25421	16.15	3
0	25422	16.15	4
0	25423	16.15	3
0	25424	16.15	2
0	25465	16.2	2
0	25466	16.2	3
0	25467	16.2	4
0	25468	16.2	3
0	25469	16.2	2
0	25475	16.2	2
0	25476	16.2	3
0	25477	16.2	4
0	25478	16.2	3
0	25479	16.2	2
0	25530	16.25	2
0	25531	16.25	3
0	25532	16.25	4
0	25533	16.25	3
0	25534	16.25	2
0	25575	16.3	2
0	25576	16.3	3
0	25577	16.3	4
0	25578	16.3	3
0	25579	16.3	2
0	25585	16.3	2
0	25586	16.3	3
0	25587	16.3	4
0	25588	16.3	3
0	25589	16.3	2
0	25645	16.35	2
0	25646	16.35	3
0	25647	16.35	4
0	25648	16.35	3
0	25649	16.35	2
0	25690	16.4	2
0	25691	16.4	3
0	25692	16.4	4
0	25693	16.4	3
0	25694	16.4	2
0	25700	16.4	2
0	25701	16.4	3
0	25702	16.4	4
0	25703	16.4	3
0	25704	16.4	2
0	25755	16.45	2
0	25756	16.45	3
0	25757	16.45	4
0	25758	16.45	3
0	25759	16.45	2
0	25800	16.5	2
0	25801	16.5	3
0	25802	16.5	4
0	25803	16.5	3
0	25804	16.5	2
0	25810	16.5	2
0	25811	16.5	3
0	25812	16.5	4
0	25813	16.5	3
0	25814	16.5	2
0	26104	16.55	2
0	26105	16.55	3
0	26106	16.55	4
0	26107	16.55	3
0	26108	16.55	2
0	26272	16.6	2
0	26273	16.6	3
0	26274	16.6	4
0	26275	16.6	3
0	26276	16.6	2
0	26282	16.6	2
0	26283	16.6	3
0	26284	16.6	4
0	26285	16.6	3
0	26286	16.6	2
0	26409	16.65	2
0	26410	16.65	3
0	26411	16.65	4
0	26412	16.65	3
0	26413	16.65	2
0	26508	16.7	2
0	26509	16.7	3
0	26510	16.7	4
0	26511	16.7	3
0	26512	16.7	2
0	26518	16.7	2
0	26519	16.7	3
0	26520	16.7	4
0	26521	16.7	3
0	26522	16.7	2
0	26650	16.75	2
0	26651	16.75	3
0	26652	16.75	4
0	26653	16.75	3
0	26654	16.75	2
0	26739	16.8	2
0	26740	16.8	3
0	26741	16.8	4
0	26742	16.8	3
0	26743	16.8	2
0	26749	16.8	2
0	26750	16.8	3
0	26751	16.8	4
0	26752	16.8	3
0	26753	16.8	2
0	26804	16.85	2
0	26805	16.85	3
0	26806	16.85	4
0	26807	16.85	3
0	26808	16.85	2
0	26849	16.9	2
0	26850	16.9	3
0	26851	16.9	4
0	26852	16.9	3
0	26853	16.9	2
0	26859	16.9	2
0	26860	16.9	3
0	26861	16.9	4
0	26862	16.9	3
0	26863	16.9	2
0	26914	16.95	2
0	26915	16.95	3
0	26916	16.95	4
0	26917	16.95	3
0	26918	16.95	2
0	26960	17	2
0	26961	17	3
0	26962	17	4
0	26963	17	3
0	26964	17	2
0	26970	17	2
0	26971	17	3
0	26972	17	4
0	26973	17	3
0	26974	17	2
0	27025	17.05	2
0	27026	17.05	3
0	27027	17.05	4
0	27028	17.05	3
0	27029	17.05	2
0	27259	17.1	2
0	27260	17.1	3
0	27261	17.1	4
0	27262	17.1	3
0	27263	17.1	2
0	27269	17.1	2
0	27270	17.1	3
0	27271	17.1	4
0	27272	17.1	3
0	27273	17.1	2
0	27330	17.15	2
0	27331	17.15	3
0	27332	17.15	4
0	27333	17.15	3
0	27334	17.15	2
0	27375	17.2	2
0	27376	17.2	3
0	27377	17.2	4
0	27378	17.2	3
0	27379	17.2	2
0	27385	17.2	2
0	27386	17.2	3
0	27387	17.2	4
0	27388	17.2	3
0	27389	17.2	2
0	27440	17.25	2
0	27441	17.25	3
0	27442	17.25	4
0	27443	17.25	3
0	27444	17.25	2
0	27485	17.3	2
0	27486	17.3	3
0	27487	17.3	4
0	27488	17.3	3
0	27489	17.3	2
0	27495	17.3	2
0	27496	17.3	3
0	27497	17.3	4
0	27498	17.3	3
0	27499	17.3	2
0	27550	17.35	2
0	27551	17.35	3
0	27552	17.35	4
0	27553	17.35	3
0	27554	17.35	2
0	27595	17.4	2
0	27596	17.4	3
0	27597	17.4	4
0	27598	17.4	3
0	27599	17.4	2
0	27605	17.4	2
0	27606	17.4	3
0	27607	17.4	4
0	27608	17.4	3
0	27609	17.4	2
0	27660	17.45	2
0	27661	17.45	3
0	27662	17.45	4
0	27663	17.45	3
0	27664	17.45	2
0	27705	17.5	2
0	27706	17.5	3
0	27707	17.5	4
0	27708	17.5	3
0	27709	17.5	2
0	27715	17.5	2
0	27716	17.5	3
0	27717	17.5	4
0	27718	17.5	3
0	27719	17.5	2
0	27770	17.55	2
0	27771	17.55	3
0	27772	17.55	4
0	27773	17.55	3
0	27774	17.55	2
0	27815	17.6	2
0	27816	17.6	3
0	27817	17.6	4
0	27818	17.6	3
0	27819	17.6	2
0	27825	17.6	2
0	27826	17.6	3
0	27827	17.6	4
0	27828	17.6	3
0	27829	17.6	2
0	28091	17.65	2
0	28092	17.65	3
0	28093	17.65	4
0	28094	17.65	3
0	28095	17.65	2
0	28171	17.7	2
0	28172	17.7	3
0	28173	17.7	4
0	28174	17.7	3
0	28175	17.7	2
0	28181	17.7	2
0	28182	17.7	3
0	28183	17.7	4
0	28184	17.7	3
0	28185	17.7	2
0	28236	17.75	2
0	28237	17.75	3
0	28238	17.75	4
0	28239	17.75	3
0	28240	17.75	2
0	28281	17.8	2
0	28282	17.8	3
0	28283	17.8	4
0	28284	17.8	3
0	28285	17.8	2
0	28291	17.8	2
0	28292	17.8	3
0	28293	17.8	4
0	28294	17.8	3
0	28295	17.8	2
0	28346	17.85	2
0	28347	17.85	3
0	28348	17.85	4
0	28349	17.85	3
0	28350	17.85	2
0	28391	17.9	2
0	28392	17.9	3
0	28393	17.9	4
0	28394	17.9	3
0	28395	17.9	2
0	28401	17.9	2
0	28402	17.9	3
0	28403	17.9	4
0	28404	17.9	3
0	28405	17.9	2
0	28461	17.95	2
0	28462	17.95	3
0	28463	17.95	4
0	28464	17.95	3
0	28465	17.95	2
0	28507	18	2
0	28508	18	3
0	28509	18	4
0	28510	18	3
0	28511	18	2
0	28517	18	2
0	28518	18	3
0	28519	18	4
0	28520	18	3
0	28521	18	2
0	28572	18.05	2
0	28573	18.05	3
0	28574	18.05	4
0	28575	18.05	3
0	28576	18.05	2
0	28622	18.1	2
0	28623	18.1	3
0	28624	18.1	4
0	28625	18.1	3
0	28626	18.1	2
0	28632	18.1	2
0	28633	18.1	3
0	28634	18.1	4
0	28635	18.1	3
0	28636	18.1	2
0	28710	18.15	2
0	28711	18.15	3
0	28712	18.15	4
0	28713	18.15	3
0	28714	18.15	2
0	28980	18.2	2
0	28981	18.2	3
0	28982	18.2	4
0	28983	18.2	3
0	28984	18.2	2
0	28990	18.2	2
0	28991	18.2	3
0	28992	18.2	4
0	28993	18.2	3
0	28994	18.2	2
0	29112	18.25	2
0	29113	18.25	3
0	29114	18.25	4
0	29115	18.25	3
0	29116	18.25	2
0	29157	18.3	2
0	29158	18.3	3
0	29159	18.3	4
0	29160	18.3	3
0	29161	18.3	2
0	29167	18.3	2
0	29168	18.3	3
0	29169	18.3	4
0	29170	18.3	3
0	29171	18.3	2
0	29262	18.35	2
0	29263	18.35	3
0	29264	18.35	4
0	29265	18.35	3
0	29266	18.35	2
0	29307	18.4	2
0	29308	18.4	3
0	29309	18.4	4
0	29310	18.4	3
0	29311	18.4	2
0	29317	18.4	2
0	29318	18.4	3
0	29319	18.4	4
0	29320	18.4	3
0	29321	18.4	2
0	29372	18.45	2
0	29373	18.45	3
0	29374	18.45	4
0	29375	18.45	3
0	29376	18.45	2
0	29422	18.5	2
0	29423	18.5	3
0	29424	18.5	4
0	29425	18.5	3
0	29426	18.5	2
0	29432	18.5	2
0	29433	18.5	3
0	29434	18.5	4
0	29435	18.5	3
0	29436	18.5	2
0	29487	18.55	2
0	29488	18.55	3
0	29489	18.55	4
0	29490	18.55	3
0	29491	18.55	2
0	29532	18.6	2
0	29533	18.6	3
0	29534	18.6	4
0	29535	18.6	3
0	29536	18.6	2
0	29542	18.6	2
0	29543	18.6	3
0	29544	18.6	4
0	29545	18.6	3
0	29546	18.6	2
0	29597	18.65	2
0	29598	18.65	3
0	29599	18.65	4
0	29600	18.65	3
0	29601	18.65	2
0	29642	18.7	2
0	29643	18.7	3
0	29644	18.7	4
0	29645	18.7	3
0	29646	18.7	2
0	29652	18.7	2
0	29653	18.7	3
0	29654	18.7	4
0	29655	18.7	3
0	29656	18.7	2
0	29910	18.75	2
0	29911	18.75	3
0	29912	18.75	4
0	29913	18.75	3
0	29914	18.75	2
0	29964	18.8	2
0	29965	18.8	3
0	29966	18.8	4
0	29967	18.8	3
0	29968	18.8	2
0	29974	18.8	2
0	29975	18.8	3
0	29976	18.8	4
0	29977	18.8	3
0	29978	18.8	2
0	30029	18.85	2
0	30030	18.85	3
0	30031	18.85	4
0	30032	18.85	3
0	30033	18.85	2
0	30173	18.9	2
0	30174	18.9	3
0	30175	18.9	4
0	30176	18.9	3
0	30177	18.9	2
0	30183	18.9	2
0	30184	18.9	3
0	30185	18.9	4
0	30186	18.9	3
0	30187	18.9	2
0	30287	18.95	2
0	30288	18.95	3
0	30289	18.95	4
0	30290	18.95	3
0	30291	18.95	2
0	30390	19	2
0	30391	19	3
0	30392	19	4
0	30393	19	3
0	30394	19	2
0	30400	19	2
0	30401	19	3
0	30402	19	4
0	30403	19	3
0	30404	19	2
0	30518	19.05	2
0	30519	19.05	3
0	30520	19.05	4
0	30521	19.05	3
0	30522	19.05	2
0	30596	19.1	2
0	30597	19.1	3
0	30598	19.1	4
0	30599	19.1	3
0	30600	19.1	2
0	30606	19.1	2
0	30607	19.1	3
0	30608	19.1	4
0	30609	19.1	3
0	30610	19.1	2
0	30701	19.15	2
0	30702	19.15	3
0	30703	19.15	4
0	30704	19.15	3
0	30705	19.15	2
0	30793	19.2	2
0	30794	19.2	3
0	30795	19.2	4
0	30796	19.2	3
0	30797	19.2	2
0	30803	19.2	2
0	30804	19.2	3
0	30805	19.2	4
0	30806	19.2	3
0	30807	19.2	2
0	30918	19.25	2
0	30919	19.25	3
0	30920	19.25	4
0	30921	19.25	3
0	30922	19.25	2
0	31121	19.3	2
0	31122	19.3	3
0	31123	19.3	4
0	31124	19.3	3
0	31125	19.3	2
0	31131	19.3	2
0	31132	19.3	3
0	31133	19.3	4
0	31134	19.3	3
0	31135	19.3	2
0	31334	19.35	2
0	31335	19.35	3
0	31336	19.35	4
0	31337	19.35	3
0	31338	19.35	2
0	31379	19.4	2
0	31380	19.4	3
0	31381	19.4	4
0	31382	19.4	3
0	31383	19.4	2
0	31389	19.4	2
0	31390	19.4	3
0	31391	19.4	4
0	31392	19.4	3
0	31393	19.4	2
0	31444	19.45	2
0	31445	19.45	3
0	31446	19.45	4
0	31447	19.45	3
0	31448	19.45	2
0	31489	19.5	2
0	31490	19.5	3
0	31491	19.5	4
0	31492	19.5	3
0	31493	19.5	2
0	31499	19.5	2
0	31500	19.5	3
0	31501	19.5	4
0	31502	19.5	3
0	31503	19.5	2
0	31554	19.55	2
0	31555	19.55	3
0	31556	19.55	4
0	31557	19.55	3
0	31558	19.55	2
0	31599	19.6	2
0	31600	19.6	3
0	31601	19.6	4
0	31602	19.6	3
0	31603	19.6	2
0	31609	19.6	2
0	31610	19.6	3
0	31611	19.6	4
0	31612	19.6	3
0	31613	19.6	2
0	31664	19.65	2
0	31665	19.65	3
0	31666	19.65	4
0	31667	19.65	3
0	31668	19.65	2
0	31709	19.7	2
0	31710	19.7	3
0	31711	19.7	4
0	31712	19.7	3
0	31713	19.7	2
0	31719	19.7	2
0	31720	19.7	3
0	31721	19.7	4
0	31722	19.7	3
0	31723	19.7	2
0	31797	19.75	2
0	31798	19.75	3
0	31799	19.75	4
0	31800	19.75	3
0	31801	19.75	2
0	31842	19.8	2
0	31843	19.8	3
0	31844	19.8	4
0	31845	19.8	3
0	31846	19.8	2
0	31852	19.8	2
0	31853	19.8	3
0	31854	19.8	4
0	31855	19.8	3
0	31856	19.8	2
0	32091	19.85	2
0	32092	19.85	3
0	32093	19.85	4
0	32094	19.85	3
0	32095	19.85	2
0	32159	19.9	2
0	32160	19.9	3
0	32161	19.9	4
0	32162	19.9	3
0	32163	19.9	2
0	32169	19.9	2
0	32170	19.9	3
0	32171	19.9	4
0	32172	19.9	3
0	32173	19.9	2
0	32247	19.95	2
0	32248	19.95	3
0	32249	19.95	4
0	32250	19.95	3
0	32251	19.95	2
0	32292	20	2
0	32293	20	3
0	32294	20	4
0	32295	20	3
0	32296	20	2
0	32302	20	2
0	32303	20	3
0	32304	20	4
0	32305	20	3
0	32306	20	2
0	32357	20.05	2
0	32358	20.05	3
0	32359	20.05	4
0	32360	20.05	3
0	32361	20.05	2
0	32412	20.1	2
0	32413	20.1	3
0	32414	20.1	4
0	32415	20.1	3
0	32416	20.1	2
0	32422	20.1	2
0	32423	20.1	3
0	32424	20.1	4
0	32425	20.1	3
0	32426	20.1	2
0	32483	20.15	2
0	32484	20.15	3
0	32485	20.15	4
0	32486	20.15	3
0	32487	20.15	2
0	32528	20.2	2
0	32529	20.2	3
0	32530	20.2	4
0	32531	20.2	3
0	32532	20.2	2
0	32538	20.2	2
0	32539	20.2	3
0	32540	20.2	4
0	32541	20.2	3
0	32542	20.2	2
0	32593	20.25	2
0	32594	20.25	3
0	32595	20.25	4
0	32596	20.25	3
0	32597	20.25	2
0	32661	20.3	2
0	32662	20.3	3
0	32663	20.3	4
0	32664	20.3	3
0	32665	20.3	2
0	32671	20.3	2
0	32672	20.3	3
0	32673	20.3	4
0	32674	20.3	3
0	32675	20.3	2
0	32726	20.35	2
0	32727	20.35	3
0	32728	20.35	4
0	32729	20.35	3
0	32730	20.35	2
0	32982	20.4	2
0	32983	20.4	3
0	32984	20.4	4
0	32985	20.4	3
0	32986	20.4	2
0	32992	20.4	2
0	32993	20.4	3
0	32994	20.4	4
0	32995	20.4	3
0	32996	20.4	2
0	33087	20.45	2
0	33088	20.45	3
0	33089	20.45	4
0	33090	20.45	3
0	33091	20.45	2
0	33227	20.5	2
0	33228	20.5	3
0	33229	20.5	4
0	33230	20.5	3
0	33231	20.5	2
0	33237	20.5	2
0	33238	20.5	3
0	33239	20.5	4
0	33240	20.5	3
0	33241	20.5	2
0	33320	20.55	2
0	33321	20.55	3
0	33322	20.55	4
0	33323	20.55	3
0	33324	20.55	2
0	33436	20.6	2
0	33437	20.6	3
0	33438	20.6	4
0	33439	20.6	3
0	33440	20.6	2
0	33446	20.6	2
0	33447	20.6	3
0	33448	20.6	4
0	33449	20.6	3
0	33450	20.6	2
0	33574	20.65	2
0	33575	20.65	3
0	33576	20.65	4
0	33577	20.65	3
0	33578	20.65	2
0	33647	20.7	2
0	33648	20.7	3
0	33649	20.7	4
0	33650	20.7	3
0	33651	20.7	2
0	33657	20.7	2
0	33658	20.7	3
0	33659	20.7	4
0	33660	20.7	3
0	33661	20.7	2
0	33778	20.75	2
0	33779	20.75	3
0	33780	20.75	4
0	33781	20.75	3
0	33782	20.75	2
0	33842	20.8	2
0	33843	20.8	3
0	33844	20.8	4
0	33845	20.8	3
0	33846	20.8	2
0	33852	20.8	2
0	33853	20.8	3
0	33854	20.8	4
0	33855	20.8	3
0	33856	20.8	2
0	33907	20.85	2
0	33908	20.85	3
0	33909	20.85	4
0	33910	20.85	3
0	33911	20.85	2
0	33952	20.9	2
0	33953	20.9	3
0	33954	20.9	4
0	33955	20.9	3
0	33956	20.9	2
0	33962	20.9	2
0	33963	20.9	3
0	33964	20.9	4
0	33965	20.9	3
0	33966	20.9	2
0	34201	20.95	2
0	34202	20.95	3
0	34203	20.95	4
0	34204	20.95	3
0	34205	20.95	2
0	34246	21	2
0	34247	21	3
0	34248	21	4
0	34249	21	3
0	34250	21	2
0	34256	21	2
0	34257	21	3
0	34258	21	4
0	34259	21	3
0	34260	21	2
0	34311	21.05	2
0	34312	21.05	3
0	34313	21.05	4
0	34314	21.05	3
0	34315	21.05	2
0	34361	21.1	2
0	34362	21.1	3
0	34363	21.1	4
0	34364	21.1	3
0	34365	21.1	2
0	34371	21.1	2
0	34372	21.1	3
0	34373	21.1	4
0	34374	21.1	3
0	34375	21.1	2
0	34432	21.15	2
0	34433	21.15	3
0	34434	21.15	4
0	34435	21.15	3
0	34436	21.15	2
0	34477	21.2	2
0	34478	21.2	3
0	34479	21.2	4
0	34480	21.2	3
0	34481	21.2	2
0	34487	21.2	2
0	34488	21.2	3
0	34489	21.2	4
0	34490	21.2	3
0	34491	21.2	2
0	34542	21.25	2
0	34543	21.25	3
0	34544	21.25	4
0	34545	21.25	3
0	34546	21.25	2
0	34587	21.3	2
0	34588	21.3	3
0	34589	21.3	4
0	34590	21.3	3
0	34591	21.3	2
0	34597	21.3	2
0	34598	21.3	3
0	34599	21.3	4
0	34600	21.3	3
0	34601	21.3	2
0	34652	21.35	2
0	34653	21.35	3
0	34654	21.35	4
0	34655	21.35	3
0	34656	21.35	2
0	34697	21.4	2
0	34698	21.4	3
0	34699	21.4	4
0	34700	21.4	3
0	34701	21.4	2
0	34707	21.4	2
0	34708	21.4	3
0	34709	21.4	4
0	34710	21.4	3
0	34711	21.4	2
0	34762	21.45	2
0	34763	21.45	3
0	34764	21.45	4
0	34765	21.45	3
0	34766	21.45	2
0	35018	21.5	2
0	35019	21.5	3
0	35020	21.5	4
0	35021	21.5	3
0	35022	21.5	2
0	35028	21.5	2
0	35029	21.5	3
0	35030	21.5	4
0	35031	21.5	3
0	35032	21.5	2
0	35123	21.55	2
0	35124	21.55	3
0	35125	21.55	4
0	35126	21.55	3
0	35127	21.55	2
0	35168	21.6	2
0	35169	21.6	3
0	35170	21.6	4
0	35171	21.6	3
0	35172	21.6	2
0	35178	21.6	2
0	35179	21.6	3
0	35180	21.6	4
0	35181	21.6	3
0	35182	21.6	2
0	35233	21.65	2
0	35234	21.65	3
0	35235	21.65	4
0	35236	21.65	3
0	35237	21.65	2
0	35301	21.7	2
0	35302	21.7	3
0	35303	21.7	4
0	35304	21.7	3
0	35305	21.7	2
0	35311	21.7	2
0	35312	21.7	3
0	35313	21.7	4
0	35314	21.7	3
0	35315	21.7	2
0	35366	21.75	2
0	35367	21.75	3
0	35368	21.75	4
0	35369	21.75	3
0	35370	21.75	2
0	35411	21.8	2
0	35412	21.8	3
0	35413	21.8	4
0	35414	21.8	3
0	35415	21.8	2
0	35421	21.8	2
0	35422	21.8	3
0	35423	21.8	4
0	35424	21.8	3
0	35425	21.8	2
0	35476	21.85	2
0	35477	21.85	3
0	35478	21.85	4
0	35479	21.85	3
0	35480	21.85	2
0	35544	21.9	2
0	35545	21.9	3
0	35546	21.9	4
0	35547	21.9	3
0	35548	21.9	2
0	35554	21.9	2
0	35555	21.9	3
0	35556	21.9	4
0	35557	21.9	3
0	35558	21.9	2
0	35609	21.95	2
0	35610	21.95	3
0	35611	21.95	4
0	35612	21.95	3
0	35613	21.95	2
0	35655	22	2
0	35656	22	3
0	35657	22	4
0	35658	22	3
0	35659	22	2
0	35665	22	2
0	35666	22	3
0	35667	22	4
0	35668	22	3
0	35669	22	2
0	35927	22.05	2
0	35928	22.05	3
0	35929	22.05	4
0	35930	22.05	3
0	35931	22.05	2
0	36062	22.1	2
0	36063	22.1	3
0	36064	22.1	4
0	36065	22.1	3
0	36066	22.1	2
0	36072	22.1	2
0	36073	22.1	3
0	36074	22.1	4
0	36075	22.1	3
0	36076	22.1	2
0	36185	22.15	2
0	36186	22.15	3
0	36187	22.15	4
0	36188	22.15	3
0	36189	22.15	2
0	36274	22.2	2
0	36275	22.2	3
0	36276	22.2	4
0	36277	22.2	3
0	36278	22.2	2
0	36284	22.2	2
0	36285	22.2	3
0	36286	22.2	4
0	36287	22.2	3
0	36288	22.2	2
0	36399	22.25	2
0	36400	22.25	3
0	36401	22.25	4
0	36402	22.25	3
0	36403	22.25	2
0	36444	22.3	2
0	36445	22.3	3
0	36446	22.3	4
0	36447	22.3	3
0	36448	22.3	2
0	36454	22.3	2
0	36455	22.3	3
0	36456	22.3	4
0	36457	22.3	3
0	36458	22.3	2
0	36509	22.35	2
0	36510	22.35	3
0	36511	22.35	4
0	36512	22.35	3
0	36513	22.35	2
0	36554	22.4	2
0	36555	22.4	3
0	36556	22.4	4
0	36557	22.4	3
0	36558	22.4	2
0	36564	22.4	2
0	36565	22.4	3
0	36566	22.4	4
0	36567	22.4	3
0	36568	22.4	2
0	36642	22.45	2
0	36643	22.45	3
0	36644	22.45	4
0	36645	22.45	3
0	36646	22.45	2
0	36687	22.5	2
0	36688	22.5	3
0	36689	22.5	4
0	36690	22.5	3
0	36691	22.5	2
0	36697	22.5	2
0	36698	22.5	3
0	36699	22.5	4
0	36700	22.5	3
0	36701	22.5	2
0	36752	22.55	2
0	36753	22.55	3
0	36754	22.55	4
0	36755	22.55	3
0	36756	22.55	2
0	37031	22.6	2
0	37032	22.6	3
0	37033	22.6	4
0	37034	22.6	3
0	37035	22.6	2
0	37041	22.6	2
0	37042	22.6	3
0	37043	22.6	4
0	37044	22.6	3
0	37045	22.6	2
0	37182	22.65	2
0	37183	22.65	3
0	37184	22.65	4
0	37185	22.65	3
0	37186	22.65	2
0	37287	22.7	2
0	37288	22.7	3
0	37289	22.7	4
0	37290	22.7	3
0	37291	22.7	2
0	37297	22.7	2
0	37298	22.7	3
0	37299	22.7	4
0	37300	22.7	3
0	37301	22.7	2
0	37385	22.75	2
0	37386	22.75	3
0	37387	22.75	4
0	37388	22.75	3
0	37389	22.75	2
0	37453	22.8	2
0	37454	22.8	3
0	37455	22.8	4
0	37456	22.8	3
0	37457	22.8	2
0	37463	22.8	2
0	37464	22.8	3
0	37465	22.8	4
0	37466	22.8	3
0	37467	22.8	2
0	37518	22.85	2
0	37519	22.85	3
0	37520	22.85	4
0	37521	22.85	3
0	37522	22.85	2
0	37563	22.9	2
0	37564	22.9	3
0	37565	22.9	4
0	37566	22.9	3
0	37567	22.9	2
0	37573	22.9	2
0	37574	22.9	3
0	37575	22.9	4
0	37576	22.9	3
0	37577	22.9	2
0	37628	22.95	2
0	37629	22.95	3
0	37630	22.95	4
0	37631	22.95	3
0	37632	22.95	2
0	37691	23	2
0	37692	23	3
0	37693	23	4
0	37694	23	3
0	37695	23	2
0	37701	23	2
0	37702	23	3
0	37703	23	4
0	37704	23	3
0	37705	23	2
0	37756	23.05	2
0	37757	23.05	3
0	37758	23.05	4
0	37759	23.05	3
0	37760	23.05	2
0	37806	23.1	2
0	37807	23.1	3
0	37808	23.1	4
0	37809	23.1	3
0	37810	23.1	2
0	37816	23.1	2
0	37817	23.1	3
0	37818	23.1	4
0	37819	23.1	3
0	37820	23.1	2
0	38111	23.15	2
0	38112	23.15	3
0	38113	23.15	4
0	38114	23.15	3
0	38115	23.15	2
0	38246	23.2	2
0	38247	23.2	3
0	38248	23.2	4
0	38249	23.2	3
0	38250	23.2	2
0	38256	23.2	2
0	38257	23.2	3
0	38258	23.2	4
0	38259	23.2	3
0	38260	23.2	2
0	38352	23.25	2
0	38353	23.25	3
0	38354	23.25	4
0	38355	23.25	3
0	38356	23.25	2
0	38397	23.3	2
0	38398	23.3	3
0	38399	23.3	4
0	38400	23.3	3
0	38401	23.3	2
0	38407	23.3	2
0	38408	23.3	3
0	38409	23.3	4
0	38410	23.3	3
0	38411	23.3	2
0	38479	23.35	2
0	38480	23.35	3
0	38481	23.35	4
0	38482	23.35	3
0	38483	23.35	2
0	38524	23.4	2
0	38525	23.4	3
0	38526	23.4	4
0	38527	23.4	3
0	38528	23.4	2
0	38534	23.4	2
0	38535	23.4	3
0	38536	23.4	4
0	38537	23.4	3
0	38538	23.4	2
0	38589	23.45	2
0	38590	23.45	3
0	38591	23.45	4
0	38592	23.45	3
0	38593	23.45	2
0	38634	23.5	2
0	38635	23.5	3
0	38636	23.5	4
0	38637	23.5	3
0	38638	23.5	2
0	38644	23.5	2
0	38645	23.5	3
0	38646	23.5	4
0	38647	23.5	3
0	38648	23.5	2
0	38722	23.55	2
0	38723	23.55	3
0	38724	23.55	4
0	38725	23.55	3
0	38726	23.55	2
0	38767	23.6	2
0	38768	23.6	3
0	38769	23.6	4
0	38770	23.6	3
0	38771	23.6	2
0	38777	23.6	2
0	38778	23.6	3
0	38779	23.6	4
0	38780	23.6	3
0	38781	23.6	2
0	38832	23.65	2
0	38833	23.65	3
0	38834	23.65	4
0	38835	23.65	3
0	38836	23.65	2
0	39071	23.7	2
0	39072	23.7	3
0	39073	23.7	4
0	39074	23.7	3
0	39075	23.7	2
0	39081	23.7	2
0	39082	23.7	3
0	39083	23.7	4
0	39084	23.7	3
0	39085	23.7	2
0	39171	23.75	2
0	39172	23.75	3
0	39173	23.75	4
0	39174	23.75	3
0	39175	23.75	2
0	39216	23.8	2
0	39217	23.8	3
0	39218	23.8	4
0	39219	23.8	3
0	39220	23.8	2
0	39226	23.8	2
0	39227	23.8	3
0	39228	23.8	4
0	39229	23.8	3
0	39230	23.8	2
0	39298	23.85	2
0	39299	23.85	3
0	39300	23.85	4
0	39301	23.85	3
0	39302	23.85	2
0	39366	23.9	2
0	39367	23.9	3
0	39368	23.9	4
0	39369	23.9	3
0	39370	23.9	2
0	39376	23.9	2
0	39377	23.9	3
0	39378	23.9	4
0	39379	23.9	3
0	39380	23.9	2
0	39431	23.95	2
0	39432	23.95	3
0	39433	23.95	4
0	39434	23.95	3
0	39435	23.95	2
0	39479	24	2
0	39480	24	3
0	39481	24	4
0	39482	24	3
0	39483	24	2
0	39489	24	2
0	39490	24	3
0	39491	24	4
0	39492	24	3
0	39493	24	2
0	39544	24.05	2
0	39545	24.05	3
0	39546	24.05	4
0	39547	24.05	3
0	39548	24.05	2
0	39611	24.1	2
0	39612	24.1	3
0	39613	24.1	4
0	39614	24.1	3
0	39615	24.1	2
0	39621	24.1	2
0	39622	24.1	3
0	39623	24.1	4
0	39624	24.1	3
0	39625	24.1	2
0	39682	24.15	2
0	39683	24.15	3
0	39684	24.15	4
0	39685	24.15	3
0	39686	24.15	2
0	39727	24.2	2
0	39728	24.2	3
0	39729	24.2	4
0	39730	24.2	3
0	39731	24.2	2
0	39737	24.2	2
0	39738	24.2	3
0	39739	24.2	4
0	39740	24.2	3
0	39741	24.2	2
0	40013	24.25	2
0	40014	24.25	3
0	40015	24.25	4
0	40016	24.25	3
0	40017	24.25	2
0	40167	24.3	2
0	40168	24.3	3
0	40169	24.3	4
0	40170	24.3	3
0	40171	24.3	2
0	40177	24.3	2
0	40178	24.3	3
0	40179	24.3	4
0	40180	24.3	3
0	40181	24.3	2
0	40257	24.35	2
0	40258	24.35	3
0	40259	24.35	4
0	40260	24.35	3
0	40261	24.35	2
0	40325	24.4	2
0	40326	24.4	3
0	40327	24.4	4
0	40328	24.4	3
0	40329	24.4	2
0	40335	24.4	2
0	40336	24.4	3
0	40337	24.4	4
0	40338	24.4	3
0	40339	24.4	2
0	40407	24.45	2
0	40408	24.45	3
0	40409	24.45	4
0	40410	24.45	3
0	40411	24.45	2
0	40452	24.5	2
0	40453	24.5	3
0	40454	24.5	4
0	40455	24.5	3
0	40456	24.5	2
0	40462	24.5	2
0	40463	24.5	3
0	40464	24.5	4
0	40465	24.5	3
0	40466	24.5	2
0	40517	24.55	2
0	40518	24.55	3
0	40519	24.55	4
0	40520	24.55	3
0	40521	24.55	2
0	40562	24.6	2
0	40563	24.6	3
0	40564	24.6	4
0	40565	24.6	3
0	40566	24.6	2
0	40572	24.6	2
0	40573	24.6	3
0	40574	24.6	4
0	40575	24.6	3
0	40576	24.6	2
0	40627	24.65	2
0	40628	24.65	3
0	40629	24.65	4
0	40630	24.65	3
0	40631	24.65	2
0	40672	24.7	2
0	40673	24.7	3
0	40674	24.7	4
0	40675	24.7	3
0	40676	24.7	2
0	40682	24.7	2
0	40683	24.7	3
0	40684	24.7	4
0	40685	24.7	3
0	40686	24.7	2
0	40737	24.75	2
0	40738	24.75	3
0	40739	24.75	4
0	40740	24.75	3
0	40741	24.75	2
0	40980	24.8	2
0	40981	24.8	3
0	40982	24.8	4
0	40983	24.8	3
0	40984	24.8	2
0	40990	24.8	2
0	40991	24.8	3
0	40992	24.8	4
0	40993	24.8	3
0	40994	24.8	2
0	41071	24.85	2
0	41072	24.85	3
0	41073	24.85	4
0	41074	24.85	3
0	41075	24.85	2
0	41116	24.9	2
0	41117	24.9	3
0	41118	24.9	4
0	41119	24.9	3
0	41120	24.9	2
0	41126	24.9	2
0	41127	24.9	3
0	41128	24.9	4
0	41129	24.9	3
0	41130	24.9	2
0	41204	24.95	2
0	41205	24.95	3
0	41206	24.95	4
0	41207	24.95	3
0	41208	24.95	2
0	41273	25	2
0	41274	25	3
0	41275	25	4
0	41276	25	3
0	41277	25	2
0	41283	25	2
0	41284	25	3
0	41285	25	4
0	41286	25	3
0	41287	25	2
0	41338	25.05	2
0	41339	25.05	3
0	41340	25.05	4
0	41341	25.05	3
0	41342	25.05	2
0	41388	25.1	2
0	41389	25.1	3
0	41390	25.1	4
0	41391	25.1	3
0	41392	25.1	2
0	41398	25.1	2
0	41399	25.1	3
0	41400	25.1	4
0	41401	25.1	3
0	41402	25.1	2
0	41459	25.15	2
0	41460	25.15	3
0	41461	25.15	4
0	41462	25.15	3
0	41463	25.15	2
0	41504	25.2	2
0	41505	25.2	3
0	41506	25.2	4
0	41507	25.2	3
0	41508	25.2	2
0	41514	25.2	2
0	41515	25.2	3
0	41516	25.2	4
0	41517	25.2	3
0	41518	25.2	2
0	41569	25.25	2
0	41570	25.25	3
0	41571	25.25	4
0	41572	25.25	3
0	41573	25.25	2
0	41614	25.3	2
0	41615	25.3	3
0	41616	25.3	4
0	41617	25.3	3
0	41618	25.3	2
0	41624	25.3	2
0	41625	25.3	3
0	41626	25.3	4
0	41627	25.3	3
0	41628	25.3	2
0	41895	25.35	2
0	41896	25.35	3
0	41897	25.35	4
0	41898	25.35	3
0	41899	25.35	2
0	42056	25.4	2
0	42057	25.4	3
0	42058	25.4	4
0	42059	25.4	3
0	42060	25.4	2
0	42066	25.4	2
0	42067	25.4	3
0	42068	25.4	4
0	42069	25.4	3
0	42070	25.4	2
0	42138	25.45	2
0	42139	25.45	3
0	42140	25.45	4
0	42141	25.45	3
0	42142	25.45	2
0	42200	25.5	2
0	42201	25.5	3
0	42202	25.5	4
0	42203	25.5	3
0	42204	25.5	2
0	42210	25.5	2
0	42211	25.5	3
0	42212	25.5	4
0	42213	25.5	3
0	42214	25.5	2
0	42270	25.55	2
0	42271	25.55	3
0	42272	25.55	4
0	42273	25.55	3
0	42274	25.55	2
0	42315	25.6	2
0	42316	25.6	3
0	42317	25.6	4
0	42318	25.6	3
0	42319	25.6	2
0	42325	25.6	2
0	42326	25.6	3
0	42327	25.6	4
0	42328	25.6	3
0	42329	25.6	2
0	42380	25.65	2
0	42381	25.65	3
0	42382	25.65	4
0	42383	25.65	3
0	42384	25.65	2
0	42448	25.7	2
0	42449	25.7	3
0	42450	25.7	4
0	42451	25.7	3
0	42452	25.7	2
0	42458	25.7	2
0	42459	25.7	3
0	42460	25.7	4
0	42461	25.7	3
0	42462	25.7	2
0	42513	25.75	2
0	42514	25.75	3
0	42515	25.75	4
0	42516	25.75	3
0	42517	25.75	2
0	42558	25.8	2
0	42559	25.8	3
0	42560	25.8	4
0	42561	25.8	3
0	42562	25.8	2
0	42568	25.8	2
0	42569	25.8	3
0	42570	25.8	4
0	42571	25.8	3
0	42572	25.8	2
0	42640	25.85	2
0	42641	25.85	3
0	42642	25.85	4
0	42643	25.85	3
0	42644	25.85	2
0	42883	25.9	2
0	42884	25.9	3
0	42885	25.9	4
0	42886	25.9	3
0	42887	25.9	2
0	42893	25.9	2
0	42894	25.9	3
0	42895	25.9	4
0	42896	25.9	3
0	42897	25.9	2
0	42957	25.95	2
0	42958	25.95	3
0	42959	25.95	4
0	42960	25.95	3
0	42961	25.95	2
0	43005	26	2
0	43006	26	3
0	43007	26	4
0	43008	26	3
0	43009	26	2
0	43015	26	2
0	43016	26	3
0	43017	26	4
0	43018	26	3
0	43019	26	2
0	43093	26.05	2
0	43094	26.05	3
0	43095	26.05	4
0	43096	26.05	3
0	43097	26.05	2
0	43143	26.1	2
0	43144	26.1	3
0	43145	26.1	4
0	43146	26.1	3
0	43147	26.1	2
0	43153	26.1	2
0	43154	26.1	3
0	43155	26.1	4
0	43156	26.1	3
0	43157	26.1	2
0	43214	26.15	2
0	43215	26.15	3
0	43216	26.15	4
0	43217	26.15	3
0	43218	26.15	2
0	43259	26.2	2
0	43260	26.2	3
0	43261	26.2	4
0	43262	26.2	3
0	43263	26.2	2
0	43269	26.2	2
0	43270	26.2	3
0	43271	26.2	4
0	43272	26.2	3
0	43273	26.2	2
0	43341	26.25	2
0	43342	26.25	3
0	43343	26.25	4
0	43344	26.25	3
0	43345	26.25	2
0	43386	26.3	2
0	43387	26.3	3
0	43388	26.3	4
0	43389	26.3	3
0	43390	26.3	2
0	43396	26.3	2
0	43397	26.3	3
0	43398	26.3	4
0	43399	26.3	3
0	43400	26.3	2
0	43451	26.35	2
0	43452	26.35	3
0	43453	26.35	4
0	43454	26.35	3
0	43455	26.35	2
0	43519	26.4	2
0	43520	26.4	3
0	43521	26.4	4
0	43522	26.4	3
0	43523	26.4	2
0	43529	26.4	2
0	43530	26.4	3
0	43531	26.4	4
0	43532	26.4	3
0	43533	26.4	2
0	43800	26.45	2
0	43801	26.45	3
0	43802	26.45	4
0	43803	26.45	3
0	43804	26.45	2
0	43892	26.5	2
0	43893	26.5	3
0	43894	26.5	4
0	43895	26.5	3
0	43896	26.5	2
0	43902	26.5	2
0	43903	26.5	3
0	43904	26.5	4
0	43905	26.5	3
0	43906	26.5	2
0	43957	26.55	2
0	43958	26.55	3
0	43959	26.55	4
0	43960	26.55	3
0	43961	26.55	2
0	44025	26.6	2
0	44026	26.6	3
0	44027	26.6	4
0	44028	26.6	3
0	44029	26.6	2
0	44035	26.6	2
0	44036	26.6	3
0	44037	26.6	4
0	44038	26.6	3
0	44039	26.6	2
0	44090	26.65	2
0	44091	26.65	3
0	44092	26.65	4
0	44093	26.65	3
0	44094	26.65	2
0	44135	26.7	2
0	44136	26.7	3
0	44137	26.7	4
0	44138	26.7	3
0	44139	26.7	2
0	44145	26.7	2
0	44146	26.7	3
0	44147	26.7	4
0	44148	26.7	3
0	44149	26.7	2
0	44200	26.75	2
0	44201	26.75	3
0	44202	26.75	4
0	44203	26.75	3
0	44204	26.75	2
0	44262	26.8	2
0	44263	26.8	3
0	44264	26.8	4
0	44265	26.8	3
0	44266	26.8	2
0	44272	26.8	2
0	44273	26.8	3
0	44274	26.8	4
0	44275	26.8	3
0	44276	26.8	2
0	44327	26.85	2
0	44328	26.85	3
0	44329	26.85	4
0	44330	26.85	3
0	44331	26.85	2
0	44372	26.9	2
0	44373	26.9	3
0	44374	26.9	4
0	44375	26.9	3
0	44376	26.9	2
0	44382	26.9	2
0	44383	26.9	3
0	44384	26.9	4
0	44385	26.9	3
0	44386	26.9	2
0	44442	26.95	2
0	44443	26.95	3
0	44444	26.95	4
0	44445	26.95	3
0	44446	26.95	2
0	44702	27	2
0	44703	27	3
0	44704	27	4
0	44705	27	3
0	44706	27	2
0	44712	27	2
0	44713	27	3
0	44714	27	4
0	44715	27	3
0	44716	27	2
0	44819	27.05	2
0	44820	27.05	3
0	44821	27.05	4
0	44822	27.05	3
0	44823	27.05	2
0	44907	27.1	2
0	44908	27.1	3
0	44909	27.1	4
0	44910	27.1	3
0	44911	27.1	2
0	44917	27.1	2
0	44918	27.1	3
0	44919	27.1	4
0	44920	27.1	3
0	44921	27.1	2
0	45024	27.15	2
0	45025	27.15	3
0	45026	27.15	4
0	45027	27.15	3
0	45028	27.15	2
0	45069	27.2	2
0	45070	27.2	3
0	45071	27.2	4
0	45072	27.2	3
0	45073	27.2	2
0	45079	27.2	2
0	45080	27.2	3
0	45081	27.2	4
0	45082	27.2	3
0	45083	27.2	2
0	45134	27.25	2
0	45135	27.25	3
0	45136	27.25	4
0	45137	27.25	3
0	45138	27.25	2
0	45179	27.3	2
0	45180	27.3	3
0	45181	27.3	4
0	45182	27.3	3
0	45183	27.3	2
0	45189	27.3	2
0	45190	27.3	3
0	45191	27.3	4
0	45192	27.3	3
0	45193	27.3	2
0	45244	27.35	2
0	45245	27.35	3
0	45246	27.35	4
0	45247	27.35	3
0	45248	27.35	2
0	45289	27.4	2
0	45290	27.4	3
0	45291	27.4	4
0	45292	27.4	3
0	45293	27.4	2
0	45299	27.4	2
0	45300	27.4	3
0	45301	27.4	4
0	45302	27.4	3
0	45303	27.4	2
0	45354	27.45	2
0	45355	27.45	3
0	45356	27.45	4
0	45357	27.45	3
0	45358	27.45	2
0	45399	27.5	2
0	45400	27.5	3
0	45401	27.5	4
0	45402	27.5	3
0	45403	27.5	2
0	45409	27.5	2
0	45410	27.5	3
0	45411	27.5	4
0	45412	27.5	3
0	45413	27.5	2
0	45690	27.55	2
0	45691	27.55	3
0	45692	27.55	4
0	45693	27.55	3
0	45694	27.55	2
0	45854	27.6	2
0	45855	27.6	3
0	45856	27.6	4
0	45857	27.6	3
0	45858	27.6	2
0	45864	27.6	2
0	45865	27.6	3
0	45866	27.6	4
0	45867	27.6	3
0	45868	27.6	2
0	45919	27.65	2
0	45920	27.65	3
0	45921	27.65	4
0	45922	27.65	3
0	45923	27.65	2
0	45992	27.7	2
0	45993	27.7	3
0	45994	27.7	4
0	45995	27.7	3
0	45996	27.7	2
0	46002	27.7	2
0	46003	27.7	3
0	46004	27.7	4
0	46005	27.7	3
0	46006	27.7	2
0	46057	27.75	2
0	46058	27.75	3
0	46059	27.75	4
0	46060	27.75	3
0	46061	27.75	2
0	46102	27.8	2
0	46103	27.8	3
0	46104	27.8	4
0	46105	27.8	3
0	46106	27.8	2
0	46112	27.8	2
0	46113	27.8	3
0	46114	27.8	4
0	46115	27.8	3
0	46116	27.8	2
0	46167	27.85	2
0	46168	27.85	3
0	46169	27.85	4
0	46170	27.85	3
0	46171	27.85	2
0	46212	27.9	2
0	46213	27.9	3
0	46214	27.9	4
0	46215	27.9	3
0	46216	27.9	2
0	46222	27.9	2
0	46223	27.9	3
0	46224	27.9	4
0	46225	27.9	3
0	46226	27.9	2
0	46277	27.95	2
0	46278	27.95	3
0	46279	27.95	4
0	46280	27.95	3
0	46281	27.95	2
0	46325	28	2
0	46326	28	3
0	46327	28	4
0	46328	28	3
0	46329	28	2
0	46335	28	2
0	46336	28	3
0	46337	28	4
0	46338	28	3
0	46339	28	2
0	46390	28.05	2
0	46391	28.05	3
0	46392	28.05	4
0	46393	28.05	3
0	46394	28.05	2
0	46632	28.1	2
0	46633	28.1	3
0	46634	28.1	4
0	46635	28.1	3
0	46636	28.1	2
0	46642	28.1	2
0	46643	28.1	3
0	46644	28.1	4
0	46645	28.1	3
0	46646	28.1	2
0	46712	28.15	2
0	46713	28.15	3
0	46714	28.15	4
0	46715	28.15	3
0	46716	28.15	2
0	46757	28.2	2
0	46758	28.2	3
0	46759	28.2	4
0	46760	28.2	3
0	46761	28.2	2
0	46767	28.2	2
0	46768	28.2	3
0	46769	28.2	4
0	46770	28.2	3
0	46771	28.2	2
0	46827	28.25	2
0	46828	28.25	3
0	46829	28.25	4
0	46830	28.25	3
0	46831	28.25	2
0	46872	28.3	2
0	46873	28.3	3
0	46874	28.3	4
0	46875	28.3	3
0	46876	28.3	2
0	46882	28.3	2
0	46883	28.3	3
0	46884	28.3	4
0	46885	28.3	3
0	46886	28.3	2
0	46937	28.35	2
0	46938	28.35	3
0	46939	28.35	4
0	46940	28.35	3
0	46941	28.35	2
0	47005	28.4	2
0	47006	28.4	3
0	47007	28.4	4
0	47008	28.4	3
0	47009	28.4	2
0	47015	28.4	2
0	47016	28.4	3
0	47017	28.4	4
0	47018	28.4	3
0	47019	28.4	2
0	47070	28.45	2
0	47071	28.45	3
0	47072	28.45	4
0	47073	28.45	3
0	47074	28.45	2
0	47115	28.5	2
0	47116	28.5	3
0	47117	28.5	4
0	47118	28.5	3
0	47119	28.5	2
0	47125	28.5	2
0	47126	28.5	3
0	47127	28.5	4
0	47128	28.5	3
0	47129	28.5	2
0	47203	28.55	2
0	47204	28.55	3
0	47205	28.55	4
0	47206	28.55	3
0	47207	28.55	2
0	47248	28.6	2
0	47249	28.6	3
0	47250	28.6	4
0	47251	28.6	3
0	47252	28.6	2
0	47258	28.6	2
0	47259	28.6	3
0	47260	28.6	4
0	47261	28.6	3
0	47262	28.6	2
0	47524	28.65	2
0	47525	28.65	3
0	47526	28.65	4
0	47527	28.65	3
0	47528	28.65	2
0	47604	28.7	2
0	47605	28.7	3
0	47606	28.7	4
0	47607	28.7	3
0	47608	28.7	2
0	47614	28.7	2
0	47615	28.7	3
0	47616	28.7	4
0	47617	28.7	3
0	47618	28.7	2
0	47669	28.75	2
0	47670	28.75	3
0	47671	28.75	4
0	47672	28.75	3
0	47673	28.75	2
0	47714	28.8	2
0	47715	28.8	3
0	47716	28.8	4
0	47717	28.8	3
0	47718	28.8	2
0	47724	28.8	2
0	47725	28.8	3
0	47726	28.8	4
0	47727	28.8	3
0	47728	28.8	2
0	47779	28.85	2
0	47780	28.85	3
0	47781	28.85	4
0	47782	28.85	3
0	47783	28.85	2
0	47824	28.9	2
0	47825	28.9	3
0	47826	28.9	4
0	47827	28.9	3
0	47828	28.9	2
0	47834	28.9	2
0	47835	28.9	3
0	47836	28.9	4
0	47837	28.9	3
0	47838	28.9	2
0	47894	28.95	2
0	47895	28.95	3
0	47896	28.95	4
0	47897	28.95	3
0	47898	28.95	2
0	47941	29	2
0	47942	29	3
0	47943	29	4
0	47944	29	3
0	47945	29	2
0	47951	29	2
0	47952	29	3
0	47953	29	4
0	47954	29	3
0	47955	29	2
0	48006	29.05	2
0	48007	29.05	3
0	48008	29.05	4
0	48009	29.05	3
0	48010	29.05	2
0	48056	29.1	2
0	48057	29.1	3
0	48058	29.1	4
0	48059	29.1	3
0	48060	29.1	2
0	48066	29.1	2
0	48067	29.1	3
0	48068	29.1	4
0	48069	29.1	3
0	48070	29.1	2
0	48176	29.15	2
0	48177	29.15	3
0	48178	29.15	4
0	48179	29.15	3
0	48180	29.15	2
0	48398	29.2	2
0	48399	29.2	3
0	48400	29.2	4
0	48401	29.2	3
0	48402	29.2	2
0	48408	29.2	2
0	48409	29.2	3
0	48410	29.2	4
0	48411	29.2	3
0	48412	29.2	2
0	48582	29.25	2
0	48583	29.25	3
0	48584	29.25	4
0	48585	29.25	3
0	48586	29.25	2
0	48668	29.3	2
0	48669	29.3	3
0	48670	29.3	4
0	48671	29.3	3
0	48672	29.3	2
0	48678	29.3	2
0	48679	29.3	3
0	48680	29.3	4
0	48681	29.3	3
0	48682	29.3	2
0	48733	29.35	2
0	48734	29.35	3
0	48735	29.35	4
0	48736	29.35	3
0	48737	29.35	2
0	48778	29.4	2
0	48779	29.4	3
0	48780	29.4	4
0	48781	29.4	3
0	48782	29.4	2
0	48788	29.4	2
0	48789	29.4	3
0	48790	29.4	4
0	48791	29.4	3
0	48792	29.4	2
0	48843	29.45	2
0	48844	29.45	3
0	48845	29.45	4
0	48846	29.45	3
0	48847	29.45	2
0	48888	29.5	2
0	48889	29.5	3
0	48890	29.5	4
0	48891	29.5	3
0	48892	29.5	2
0	48898	29.5	2
0	48899	29.5	3
0	48900	29.5	4
0	48901	29.5	3
0	48902	29.5	2
0	48953	29.55	2
0	48954	29.55	3
0	48955	29.55	4
0	48956	29.55	3
0	48957	29.55	2
0	48998	29.6	2
0	48999	29.6	3
0	49000	29.6	4
0	49001	29.6	3
0	49002	29.6	2
0	49008	29.6	2
0	49009	29.6	3
0	49010	29.6	4
0	49011	29.6	3
0	49012	29.6	2
0	49063	29.65	2
0	49064	29.65	3
0	49065	29.65	4
0	49066	29.65	3
0	49067	29.65	2
0	49156	29.7	2
0	49157	29.7	3
0	49158	29.7	4
0	49159	29.7	3
0	49160	29.7	2
0	49166	29.7	2
0	49167	29.7	3
0	49168	29.7	4
0	49169	29.7	3
0	49170	29.7	2
0	49423	29.75	2
0	49424	29.75	3
0	49425	29.75	4
0	49426	29.75	3
0	49427	29.75	2
0	49477	29.8	2
0	49478	29.8	3
0	49479	29.8	4
0	49480	29.8	3
0	49481	29.8	2
0	49487	29.8	2
0	49488	29.8	3
0	49489	29.8	4
0	49490	29.8	3
0	49491	29.8	2
0	49564	29.85	2
0	49565	29.85	3
0	49566	29.85	4
0	49567	29.85	3
0	49568	29.85	2
0	49609	29.9	2
0	49610	29.9	3
0	49611	29.9	4
0	49612	29.9	3
0	49613	29.9	2
0	49619	29.9	2
0	49620	29.9	3
0	49621	29.9	4
0	49622	29.9	3
0	49623	29.9	2
0	49674	29.95	2
0	49675	29.95	3
0	49676	29.95	4
0	49677	29.95	3
0	49678	29.95	2
0	49722	30	2
0	49723	30	3
0	49724	30	4
0	49725	30	3
0	49726	30	2
0	49732	30	2
0	49733	30	3
0	49734	30	4
0	49735	30	3
0	49736	30	2
0	49787	30.05	2
0	49788	30.05	3
0	49789	30.05	4
0	49790	30.05	3
0	49791	30.05	2
0	49837	30.1	2
0	49838	30.1	3
0	49839	30.1	4
0	49840	30.1	3
0	49841	30.1	2
0	49847	30.1	2
0	49848	30.1	3
0	49849	30.1	4
0	49850	30.1	3
0	49851	30.1	2
0	49913	30.15	2
0	49914	30.15	3
0	49915	30.15	4
0	49916	30.15	3
0	49917	30.15	2
0	49958	30.2	2
0	49959	30.2	3
0	49960	30.2	4
0	49961	30.2	3
0	49962	30.2	2
0	49968	30.2	2
0	49969	30.2	3
0	49970	30.2	4
0	49971	30.2	3
0	49972	30.2	2
0	50040	30.25	2
0	50041	30.25	3
0	50042	30.25	4
0	50043	30.25	3
0	50044	30.25	2
0	50296	30.3	2
0	50297	30.3	3
0	50298	30.3	4
0	50299	30.3	3
0	50300	30.3	2
0	50306	30.3	2
0	50307	30.3	3
0	50308	30.3	4
0	50309	30.3	3
0	50310	30.3	2
0	50396	30.35	2
0	50397	30.35	3
0	50398	30.35	4
0	50399	30.35	3
0	50400	30.35	2
0	50446	30.4	2
0	50447	30.4	3
0	50448	30.4	4
0	50449	30.4	3
0	50450	30.4	2
0	50456	30.4	2
0	50457	30.4	3
0	50458	30.4	4
0	50459	30.4	3
0	50460	30.4	2
0	50511	30.45	2
0	50512	30.45	3
0	50513	30.45	4
0	50514	30.45	3
0	50515	30.45	2
0	50556	30.5	2
0	50557	30.5	3
0	50558	30.5	4
0	50559	30.5	3
0	50560	30.5	2
0	50566	30.5	2
0	50567	30.5	3
0	50568	30.5	4
0	50569	30.5	3
0	50570	30.5	2
0	50644	30.55	2
0	50645	30.55	3
0	50646	30.55	4
0	50647	30.55	3
0	50648	30.55	2
0	50689	30.6	2
0	50690	30.6	3
0	50691	30.6	4
0	50692	30.6	3
0	50693	30.6	2
0	50699	30.6	2
0	50700	30.6	3
0	50701	30.6	4
0	50702	30.6	3
0	50703	30.6	2
0	50754	30.65	2
0	50755	30.65	3
0	50756	30.65	4
0	50757	30.65	3
0	50758	30.65	2
0	50804	30.7	2
0	50805	30.7	3
0	50806	30.7	4
0	50807	30.7	3
0	50808	30.7	2
0	50814	30.7	2
0	50815	30.7	3
0	50816	30.7	4
0	50817	30.7	3
0	50818	30.7	2
0	50869	30.75	2
0	50870	30.75	3
0	50871	30.75	4
0	50872	30.75	3
0	50873	30.75	2
0	50914	30.8	2
0	50915	30.8	3
0	50916	30.8	4
0	50917	30.8	3
0	50918	30.8	2
0	50924	30.8	2
0	50925	30.8	3
0	50926	30.8	4
0	50927	30.8	3
0	50928	30.8	2
0	51163	30.85	2
0	51164	30.85	3
0	51165	30.85	4
0	51166	30.85	3
0	51167	30.85	2
0	51208	30.9	2
0	51209	30.9	3
0	51210	30.9	4
0	51211	30.9	3
0	51212	30.9	2
0	51218	30.9	2
0	51219	30.9	3
0	51220	30.9	4
0	51221	30.9	3
0	51222	30.9	2
0	51273	30.95	2
0	51274	30.95	3
0	51275	30.95	4
0	51276	30.95	3
0	51277	30.95	2
0	51320	31	2
0	51321	31	3
0	51322	31	4
0	51323	31	3
0	51324	31	2
0	51330	31	2
0	51331	31	3
0	51332	31	4
0	51333	31	3
0	51334	31	2
0	51385	31.05	2
0	51386	31.05	3
0	51387	31.05	4
0	51388	31.05	3
0	51389	31.05	2
0	51435	31.1	2
0	51436	31.1	3
0	51437	31.1	4
0	51438	31.1	3
0	51439	31.1	2
0	51445	31.1	2
0	51446	31.1	3
0	51447	31.1	4
0	51448	31.1	3
0	51449	31.1	2
0	51506	31.15	2
0	51507	31.15	3
0	51508	31.15	4
0	51509	31.15	3
0	51510	31.15	2
0	51551	31.2	2
0	51552	31.2	3
0	51553	31.2	4
0	51554	31.2	3
0	51555	31.2	2
0	51561	31.2	2
0	51562	31.2	3
0	51563	31.2	4
0	51564	31.2	3
0	51565	31.2	2
0	51616	31.25	2
0	51617	31.25	3
0	51618	31.25	4
0	51619	31.25	3
0	51620	31.25	2
0	51714	31.3	2
0	51715	31.3	3
0	51716	31.3	4
0	51717	31.3	3
0	51718	31.3	2
0	51724	31.3	2
0	51725	31.3	3
0	51726	31.3	4
0	51727	31.3	3
0	51728	31.3	2
0	51801	31.35	2
0	51802	31.35	3
0	51803	31.35	4
0	51804	31.35	3
0	51805	31.35	2
0	52057	31.4	2
0	52058	31.4	3
0	52059	31.4	4
0	52060	31.4	3
0	52061	31.4	2
0	52067	31.4	2
0	52068	31.4	3
0	52069	31.4	4
0	52070	31.4	3
0	52071	31.4	2
0	52180	31.45	2
0	52181	31.45	3
0	52182	31.45	4
0	52183	31.45	3
0	52184	31.45	2
0	52225	31.5	2
0	52226	31.5	3
0	52227	31.5	4
0	52228	31.5	3
0	52229	31.5	2
0	52235	31.5	2
0	52236	31.5	3
0	52237	31.5	4
0	52238	31.5	3
0	52239	31.5	2
0	52290	31.55	2
0	52291	31.55	3
0	52292	31.55	4
0	52293	31.55	3
0	52294	31.55	2
0	52335	31.6	2
0	52336	31.6	3
0	52337	31.6	4
0	52338	31.6	3
0	52339	31.6	2
0	52345	31.6	2
0	52346	31.6	3
0	52347	31.6	4
0	52348	31.6	3
0	52349	31.6	2
0	52400	31.65	2
0	52401	31.65	3
0	52402	31.65	4
0	52403	31.65	3
0	52404	31.65	2
0	52445	31.7	2
0	52446	31.7	3
0	52447	31.7	4
0	52448	31.7	3
0	52449	31.7	2
0	52455	31.7	2
0	52456	31.7	3
0	52457	31.7	4
0	52458	31.7	3
0	52459	31.7	2
0	52510	31.75	2
0	52511	31.75	3
0	52512	31.75	4
0	52513	31.75	3
0	52514	31.75	2
0	52555	31.8	2
0	52556	31.8	3
0	52557	31.8	4
0	52558	31.8	3
0	52559	31.8	2
0	52565	31.8	2
0	52566	31.8	3
0	52567	31.8	4
0	52568	31.8	3
0	52569	31.8	2
0	52668	31.85	2
0	52669	31.85	3
0	52670	31.85	4
0	52671	31.85	3
0	52672	31.85	2
0	52735	31.9	2
0	52736	31.9	3
0	52737	31.9	4
0	52738	31.9	3
0	52739	31.9	2
0	52745	31.9	2
0	52746	31.9	3
0	52747	31.9	4
0	52748	31.9	3
0	52749	31.9	2
0	52984	31.95	2
0	52985	31.95	3
0	52986	31.95	4
0	52987	31.95	3
0	52988	31.95	2
0	53072	32	2
0	53073	32	3
0	53074	32	4
0	53075	32	3
0	53076	32	2
0	53082	32	2
0	53083	32	3
0	53084	32	4
0	53085	32	3
0	53086	32	2
0	53137	32.05	2
0	53138	32.05	3
0	53139	32.05	4
0	53140	32.05	3
0	53141	32.05	2
0	53187	32.1	2
0	53188	32.1	3
0	53189	32.1	4
0	53190	32.1	3
0	53191	32.1	2
0	53197	32.1	2
0	53198	32.1	3
0	53199	32.1	4
0	53200	32.1	3
0	53201	32.1	2
0	53263	32.15	2
0	53264	32.15	3
0	53265	32.15	4
0	53266	32.15	3
0	53267	32.15	2
0	53308	32.2	2
0	53309	32.2	3
0	53310	32.2	4
0	53311	32.2	3
0	53312	32.2	2
0	53318	32.2	2
0	53319	32.2	3
0	53320	32.2	4
0	53321	32.2	3
0	53322	32.2	2
0	53373	32.25	2
0	53374	32.25	3
0	53375	32.25	4
0	53376	32.25	3
0	53377	32.25	2
0	53441	32.3	2
0	53442	32.3	3
0	53443	32.3	4
0	53444	32.3	3
0	53445	32.3	2
0	53451	32.3	2
0	53452	32.3	3
0	53453	32.3	4
0	53454	32.3	3
0	53455	32.3	2
0	53506	32.35	2
0	53507	32.35	3
0	53508	32.35	4
0	53509	32.35	3
0	53510	32.35	2
0	53561	32.4	2
0	53562	32.4	3
0	53563	32.4	4
0	53564	32.4	3
0	53565	32.4	2
0	53571	32.4	2
0	53572	32.4	3
0	53573	32.4	4
0	53574	32.4	3
0	53575	32.4	2
0	53626	32.45	2
0	53627	32.45	3
0	53628	32.45	4
0	53629	32.45	3
0	53630	32.45	2
0	53882	32.5	2
0	53883	32.5	3
0	53884	32.5	4
0	53885	32.5	3
0	53886	32.5	2
0	53892	32.5	2
0	53893	32.5	3
0	53894	32.5	4
0	53895	32.5	3
0	53896	32.5	2
0	53982	32.55	2
0	53983	32.55	3
0	53984	32.55	4
0	53985	32.55	3
0	53986	32.55	2
0	54027	32.6	2
0	54028	32.6	3
0	54029	32.6	4
0	54030	32.6	3
0	54031	32.6	2
0	54037	32.6	2
0	54038	32.6	3
0	54039	32.6	4
0	54040	32.6	3
0	54041	32.6	2
0	54092	32.65	2
0	54093	32.65	3
0	54094	32.65	4
0	54095	32.65	3
0	54096	32.65	2
0	54142	32.7	2
0	54143	32.7	3
0	54144	32.7	4
0	54145	32.7	3
0	54146	32.7	2
0	54152	32.7	2
0	54153	32.7	3
0	54154	32.7	4
0	54155	32.7	3
0	54156	32.7	2
0	54207	32.75	2
0	54208	32.75	3
0	54209	32.75	4
0	54210	32.75	3
0	54211	32.75	2
0	54252	32.8	2
0	54253	32.8	3
0	54254	32.8	4
0	54255	32.8	3
0	54256	32.8	2
0	54262	32.8	2
0	54263	32.8	3
0	54264	32.8	4
0	54265	32.8	3
0	54266	32.8	2
0	54317	32.85	2
0	54318	32.85	3
0	54319	32.85	4
0	54320	32.85	3
0	54321	32.85	2
0	54362	32.9	2
0	54363	32.9	3
0	54364	32.9	4
0	54365	32.9	3
0	54366	32.9	2
0	54372	32.9	2
0	54373	32.9	3
0	54374	32.9	4
0	54375	32.9	3
0	54376	32.9	2
0	54427	32.95	2
0	54428	32.95	3
0	54429	32.95	4
0	54430	32.95	3
0	54431	32.95	2
0	54474	33	2
0	54475	33	3
0	54476	33	4
0	54477	33	3
0	54478	33	2
0	54484	33	2
0	54485	33	3
0	54486	33	4
0	54487	33	3
0	54488	33	2
0	54723	33.05	2
0	54724	33.05	3
0	54725	33.05	4
0	54726	33.05	3
0	54727	33.05	2
0	54773	33.1	2
0	54774	33.1	3
0	54775	33.1	4
0	54776	33.1	3
0	54777	33.1	2
0	54783	33.1	2
0	54784	33.1	3
0	54785	33.1	4
0	54786	33.1	3
0	54787	33.1	2
0	54844	33.15	2
0	54845	33.15	3
0	54846	33.15	4
0	54847	33.15	3
0	54848	33.15	2
0	54889	33.2	2
0	54890	33.2	3
0	54891	33.2	4
0	54892	33.2	3
0	54893	33.2	2
0	54899	33.2	2
0	54900	33.2	3
0	54901	33.2	4
0	54902	33.2	3
0	54903	33.2	2
0	54954	33.25	2
0	54955	33.25	3
0	54956	33.25	4
0	54957	33.25	3
0	54958	33.25	2
0	54999	33.3	2
0	55000	33.3	3
0	55001	33.3	4
0	55002	33.3	3
0	55003	33.3	2
0	55009	33.3	2
0	55010	33.3	3
0	55011	33.3	4
0	55012	33.3	3
0	55013	33.3	2
0	55064	33.35	2
0	55065	33.35	3
0	55066	33.35	4
0	55067	33.35	3
0	55068	33.35	2
0	55109	33.4	2
0	55110	33.4	3
0	55111	33.4	4
0	55112	33.4	3
0	55113	33.4	2
0	55119	33.4	2
0	55120	33.4	3
0	55121	33.4	4
[...]
3	555548	346.71334031478	525507
3	555567	346.72718031478	525648
3	555586	346.74102031478	525789
3	556395	347.333511186651	525930
3	556815	347.63342031478	526071
3	557559	348.18342031478	526212
3	557888	348.433511186651	526353
3	559008	349.28342031478	526494
3	559337	349.533511186651	526635
3	560485	350.38342031478	526776
3	560814	350.633511186651	526917
3	561537	351.183511186651	527058
3	561962	351.48342031478	527199
3	562997	352.283511186651	527340
3	563417	352.58342031478	527481
3	564163	353.13342031478	527622
3	564495	353.383511186651	527763
3	565641	354.23342031478	527904
3	565950	354.483511186651	528045
3	567112	355.33342031478	528186
3	567421	355.583511186651	528327
3	568165	356.133511186651	528468
3	568585	356.43342031478	528609
3	569624	357.233511186651	528750
3	570044	357.53342031478	528891
3	571108	358.333511186651	529032
3	571528	358.63342031478	529173
3	572254	359.18342031478	529314
3	572583	359.433511186651	529455
3	573714	360.29813835206	529596
3	574043	360.533511186651	529737
3	575165	361.38342031478	529878
3	575499	361.633511186651	530019
3	576226	362.183511186651	530160
3	576646	362.48342031478	530301
3	577682	363.283511186651	530442
3	578107	363.58342031478	530583
3	578849	364.13342031478	530724
3	579158	364.383511186651	530865
3	580322	365.23342031478	531006
3	580631	365.483511186651	531147
3	581900	366.325511214128	531288
3	581910	366.33342031478	531429
3	582070	366.422391214128	531570
3	582088	366.436231214128	531711
3	582157	366.477751214128	531852
3	582175	366.491591214128	531993
3	582256	366.519271214128	532134
3	582269	366.533111214128	532275
3	582337	366.560791214128	532416
3	582373	366.574631214128	532557
3	582391	366.583511186651	532698
3	582478	366.602311214128	532839
3	582496	366.616151214128	532980
3	582509	366.629991214128	533121
3	582578	366.671511214128	533262
3	582591	366.685351214128	533403
3	582609	366.699191214128	533544
3	582713	366.726871214128	533685
3	582856	366.809911214128	533826
3	582874	366.823751214128	533967
3	583026	366.88342031478	534108
3	583048	366.89726031478	534249
3	583135	366.91110031478	534390
3	583157	366.92494031478	534531
3	583176	366.934471214128	534672
3	583186	366.93878031478	534813
3	583250	366.95262031478	534954
3	583269	366.96646031478	535095
3	583288	366.98030031478	535236
3	583307	366.99414031478	535377
3	583394	367.00798031478	535518
3	583413	367.02182031478	535659
3	583432	367.03566031478	535800
3	583451	367.04950031478	535941
3	583515	367.06334031478	536082
3	583534	367.07718031478	536223
3	583553	367.09102031478	536364
3	583651	367.10486031478	536505
3	583682	367.11870031478	536646
3	583715	367.133511186651	536787
3	584137	367.43342031478	536928
3	584156	367.44726031478	537069
3	585196	368.233511186651	537210
3	585616	368.53342031478	537351
3	586647	369.333511186651	537492
3	587107	369.64813835206	537633
3	587834	370.18342031478	537774
3	588163	370.433511186651	537915
3	589302	371.28342031478	538056
3	589541	371.397831214128	538197
3	589619	371.411671214128	538338
3	589637	371.425511214128	538479
3	589703	371.453191214128	538620
3	589719	371.480871214128	538761
3	589807	371.508551214128	538902
3	589846	371.533511186651	539043
3	589865	371.536231214128	539184
3	590005	371.605431214128	539325
3	590023	371.619271214128	539466
3	590044	371.646951214128	539607
3	590202	371.716151214128	539748
3	590220	371.729991214128	539889
3	590283	371.757671214128	540030
3	590308	371.771511214128	540171
3	590321	371.785351214128	540312
3	590484	371.83342031478	540453
3	590506	371.84726031478	540594
3	590570	371.854551214128	540735
3	590580	371.86110031478	540876
3	590602	371.87494031478	541017
3	590624	371.88878031478	541158
3	590713	371.90262031478	541299
3	590735	371.91646031478	541440
3	590754	371.923751214128	541581
3	590764	371.93030031478	541722
3	590786	371.94414031478	541863
3	590850	371.951431214128	542004
3	590863	371.95798031478	542145
3	590894	371.97182031478	542286
3	590913	371.98566031478	542427
3	590932	371.99950031478	542568
3	591018	372.01334031478	542709
3	591037	372.02718031478	542850
3	591560	372.38342031478	542991
3	591579	372.39726031478	543132
3	591663	372.41110031478	543273
3	591682	372.42494031478	543414
3	591946	372.633511186651	543555
3	592669	373.183511186651	543696
3	593089	373.48342031478	543837
3	593987	374.083991214128	543978
3	594080	374.111671214128	544119
3	594093	374.125511214128	544260
3	594106	374.139351214128	544401
3	594175	374.180871214128	544542
3	594188	374.194711214128	544683
3	594271	374.208551214128	544824
3	594342	374.250071214128	544965
3	594389	374.283511186651	545106
3	594476	374.305431214128	545247
3	594494	374.319271214128	545388
3	594566	374.374631214128	545529
3	594669	374.416151214128	545670
3	594691	374.429991214128	545811
3	594760	374.471511214128	545952
3	594776	374.499191214128	546093
3	594865	374.540711214128	546234
3	594927	374.554551214128	546375
3	594964	374.568391214128	546516
3	595038	374.582231214128	546657
3	595048	374.58845835206	546798
3	595132	374.60229835206	546939
3	595151	374.61613835206	547080
3	595170	374.62997835206	547221
3	595189	374.64381835206	547362
3	595253	374.65765835206	547503
3	595272	374.67149835206	547644
3	595291	374.68533835206	547785
3	595310	374.69917835206	547926
3	595394	374.71301835206	548067
3	595413	374.72685835206	548208
3	595432	374.74069835206	548349
3	595496	374.75453835206	548490
3	595515	374.76837835206	548631
3	595534	374.78221835206	548772
3	595553	374.79605835206	548913
3	595639	374.80989835206	549054
3	595679	374.82373835206	549195
3	595698	374.83757835206	549336
3	596143	375.13342031478	549477
3	596162	375.14726031478	549618
3	596471	375.383511186651	549759
3	597645	376.23342031478	549900
3	597954	376.483511186651	550041
3	599103	377.33342031478	550182
3	599105	377.33342031478	550323
3	599423	377.583511186651	550464
3	599953	377.88342031478	550605
3	599955	377.88342031478	550746
3	599983	377.889351214128	550887
3	600118	377.958551214128	551028
3	600139	377.986231214128	551169
3	600224	378.000071214128	551310
3	600243	378.013911214128	551451
3	600311	378.069271214128	551592
3	600325	378.083111214128	551733
3	600344	378.096951214128	551874
3	600468	378.124631214128	552015
3	600487	378.133511186651	552156
3	600506	378.138471214128	552297
3	600655	378.221511214128	552438
3	600669	378.235351214128	552579
3	600984	378.43342031478	552720
3	601003	378.44726031478	552861
3	602373	379.53342031478	553002
3	603297	380.283511186651	553143
3	603316	380.297351186651	553284
3	603801	380.63342031478	553425
3	604528	381.18342031478	553566
3	604792	381.383511186651	553707
3	605982	382.28342031478	553848
3	606246	382.483511186651	553989
3	607456	383.38342031478	554130
3	607720	383.583511186651	554271
3	608460	384.133511186651	554412
3	608959	384.48342031478	554553
3	609949	385.233511186651	554694
3	610414	385.58342031478	554835
3	611159	386.13342031478	554976
3	611423	386.333511186651	555117
3	612678	387.23342031478	555258
3	612942	387.433511186651	555399
3	614133	388.33342031478	555540
3	614397	388.533511186651	555681
3	615610	389.43342031478	555822
3	615874	389.633511186651	555963
3	616594	390.183511186651	556104
3	617079	390.53342031478	556245
3	618054	391.283511186651	556386
3	618539	391.63342031478	556527
3	619260	392.18342031478	556668
3	619529	392.383511186651	556809
3	620722	393.28342031478	556950
3	620986	393.483511186651	557091
3	622180	394.38342031478	557232
3	622444	394.583511186651	557373
3	623186	395.133511186651	557514
3	623756	395.48342031478	557655
3	623775	395.488377328601	557796
3	623862	395.516057328601	557937
3	623876	395.529897328601	558078
3	623938	395.557577328601	558219
3	623958	395.599097328601	558360
3	624062	395.640617328601	558501
3	624143	395.668297328601	558642
3	624169	395.695977328601	558783
3	624316	395.792857328601	558924
3	624397	395.806697328601	559065
3	624437	395.820537328601	559206
3	624456	395.834377328601	559347
3	624523	395.862057328601	559488
3	624611	395.917417328601	559629
3	624676	395.958937328601	559770
3	624772	396.000457328601	559911
3	625135	396.233511186651	560052
3	625691	396.58342031478	560193
3	625778	396.602217328601	560334
3	625797	396.616057328601	560475
3	625819	396.643737328601	560616
3	625878	396.657577328601	560757
3	625892	396.671417328601	560898
3	625906	396.685257328601	561039
3	625925	396.699097328601	561180
3	626004	396.712937328601	561321
3	626026	396.740617328601	561462
3	626128	396.782137328601	561603
3	626147	396.795977328601	561744
3	626229	396.823657328601	561885
3	626291	396.851337328601	562026
3	626308	396.879017328601	562167
3	626421	396.920537328601	562308
3	626443	396.948217328601	562449
3	626510	396.975897328601	562590
3	626529	396.989737328601	562731
3	626611	397.003577328601	562872
3	626625	397.017417328601	563013
3	626639	397.031257328601	563154
3	626840	397.13342031478	563295
3	627104	397.333511186651	563436
3	628290	398.23342031478	563577
3	628577	398.433511186651	563718
3	629768	399.33342031478	563859
3	630032	399.533511186651	564000
3	631246	400.43342031478	564141
3	631510	400.633511186651	564282
3	632232	401.183511186651	564423
3	632717	401.53342031478	564564
3	634151	402.63342031478	564705
3	634415	402.833511186651	564846
3	634899	403.198157915178	564987
3	635168	403.383511186651	565128
3	636355	404.28342031478	565269
3	636619	404.483511186651	565410
3	637832	405.38342031478	565551
3	638096	405.583511186651	565692
3	638839	406.133511186651	565833
3	639304	406.48342031478	565974
3	640311	407.233511186651	566115
3	640776	407.58342031478	566256
3	641524	408.13342031478	566397
3	641811	408.333511186651	566538
3	642371	408.688377328601	566679
3	642507	408.757577328601	566820
3	642521	408.771417328601	566961
3	642535	408.785257328601	567102
3	642619	408.812937328601	567243
3	642636	408.826777328601	567384
3	642715	408.868297328601	567525
3	642743	408.882137328601	567666
3	642757	408.895977328601	567807
3	642839	408.923657328601	567948
3	642907	408.979017328601	568089
3	642926	408.992857328601	568230
3	643014	409.006697328601	568371
3	643052	409.034377328601	568512
3	643203	409.117417328601	568653
3	643220	409.145097328601	568794
3	643282	409.172777328601	568935
3	643417	409.23342031478	569076
3	643681	409.433511186651	569217
3	644873	410.33342031478	569358
3	645142	410.533511186651	569499
3	646328	411.43342031478	569640
3	646592	411.633511186651	569781
3	647325	412.183511186651	569922
3	647810	412.53342031478	570063
3	648775	413.283511186651	570204
3	649139	413.497831214128	570345
3	649223	413.511671214128	570486
3	649237	413.525511214128	570627
3	649302	413.567031214128	570768
3	649316	413.580871214128	570909
3	649465	413.648157915178	571050
3	649532	413.663911214128	571191
3	649546	413.677751214128	571332
3	649628	413.705431214128	571473
3	649699	413.774631214128	571614
3	649718	413.788471214128	571755
3	649799	413.802311214128	571896
3	649830	413.816151214128	572037
3	649858	413.829991214128	572178
3	649877	413.843831214128	572319
3	649941	413.857671214128	572460
3	649958	413.885351214128	572601
3	650045	413.913031214128	572742
3	650064	413.926871214128	572883
3	650078	413.940711214128	573024
3	650171	413.982231214128	573165
3	650471	414.18342031478	573306
3	650735	414.383511186651	573447
3	651943	415.28342031478	573588
3	652207	415.483511186651	573729
3	653433	416.38342031478	573870
3	653697	416.583511186651	574011
3	654439	417.133511186651	574152
3	654909	417.48342031478	574293
3	655371	417.797831214128	574434
3	655484	417.839351214128	574575
3	655543	417.853191214128	574716
3	655563	417.894711214128	574857
3	655644	417.908551214128	574998
3	655670	417.922391214128	575139
3	655684	417.936231214128	575280
3	655832	418.005431214128	575421
3	655874	418.019271214128	575562
3	655905	418.033111214128	575703
3	655972	418.088471214128	575844
3	656066	418.102311214128	575985
3	656079	418.116151214128	576126
3	656097	418.129991214128	576267
3	656110	418.143831214128	576408
3	656173	418.157671214128	576549
3	656191	418.171511214128	576690
3	656204	418.185351214128	576831
3	656217	418.199191214128	576972
3	656351	418.233511186651	577113
3	656370	418.24545037379	577254
3	656504	418.30081037379	577395
3	656537	418.32849037379	577536
3	656906	418.58342031478	577677
3	657680	419.13342031478	577818
3	657943	419.333511186651	577959
3	659134	420.23342031478	578100
3	659397	420.433511186651	578241
3	660616	421.33342031478	578382
3	660879	421.533511186651	578523
3	662045	422.43342031478	578664
3	663392	423.53342031478	578805
3	663592	423.683511186651	578946
3	663611	423.697351186651	579087
3	664356	424.233511186651	579228
3	664617	424.397831214128	579369
3	664701	424.411671214128	579510
3	664720	424.425511214128	579651
3	664734	424.439351214128	579792
3	664798	424.453191214128	579933
3	664817	424.467031214128	580074
3	664836	424.480871214128	580215
3	664921	424.522391214128	580356
3	664935	424.536231214128	580497
3	665008	424.591591214128	580638
3	665114	424.633111214128	580779
3	665210	424.666216196453	580920
3	665893	425.18342031478	581061
3	666111	425.333511186651	581202
3	667345	426.28342031478	581343
3	667568	426.433511186651	581484
3	668799	427.38342031478	581625
3	669017	427.533511186651	581766
3	670269	428.48342031478	581907
3	670487	428.633511186651	582048
3	671214	429.183511186651	582189
3	671767	429.58342031478	582330
3	672050	429.733991214128	582471
3	672120	429.775511214128	582612
3	672207	429.803191214128	582753
3	672227	429.844711214128	582894
3	672399	429.927751214128	583035
3	672413	429.941591214128	583176
3	672472	429.955431214128	583317
3	672486	429.969271214128	583458
3	672500	429.983111214128	583599
3	672519	429.996951214128	583740
3	672781	430.13342031478	583881
3	672979	430.283511186651	584022
3	674230	431.23342031478	584163
3	674433	431.383511186651	584304
3	675704	432.33342031478	584445
3	675902	432.483511186651	584586
3	677025	433.261671214128	584727
3	677039	433.275511214128	584868
3	677121	433.303191214128	585009
3	677140	433.317031214128	585150
3	677288	433.400071214128	585291
3	677302	433.413911214128	585432
3	677333	433.427751214128	585573
3	677352	433.441591214128	585714
3	677416	433.455431214128	585855
3	677512	433.524631214128	585996
3	677531	433.538471214128	586137
3	677597	433.552311214128	586278
3	677671	433.583511186651	586419
3	677682	433.585416196453	586560
3	678434	434.133511186651	586701
3	678964	434.53342031478	586842
3	680090	435.383511186651	586983
3	680442	435.63342031478	587124
3	681161	436.18342031478	587265
3	681557	436.483511186651	587406
3	682636	437.28342031478	587547
3	683032	437.583511186651	587688
3	683773	438.133511186651	587829
3	684105	438.38342031478	587970
3	685230	439.233511186651	588111
3	685562	439.48342031478	588252
3	686703	440.333511186651	588393
3	687052	440.58342031478	588534
3	687813	441.13342031478	588675
3	688209	441.433511186651	588816
3	689260	442.23342031478	588957
3	689661	442.533511186651	589098
3	690215	442.883991214128	589239
3	690299	442.911671214128	589380
3	690391	442.980871214128	589521
3	690410	442.994711214128	589662
3	690496	443.036231214128	589803
3	690562	443.050071214128	589944
3	690581	443.063911214128	590085
3	690707	443.119271214128	590226
3	690783	443.188471214128	590367
3	690926	443.257671214128	590508
3	690957	443.271511214128	590649
3	690971	443.285351214128	590790
3	690990	443.299191214128	590931
3	691088	443.326871214128	591072
3	691107	443.340711214128	591213
3	691201	443.378456196453	591354
3	691569	443.633511186651	591495
3	692209	444.039351214128	591636
3	692362	444.108551214128	591777
3	692434	444.150071214128	591918
3	692453	444.163911214128	592059
3	692482	444.177751214128	592200
3	692569	444.205431214128	592341
3	692586	444.233111214128	592482
3	692727	444.302311214128	592623
3	692741	444.316151214128	592764
3	692758	444.343831214128	592905
3	692935	444.43342031478	593046
3	693331	444.733511186651	593187
3	694055	445.283511186651	593328
3	694407	445.53342031478	593469
3	695547	446.383511186651	593610
3	695899	446.63342031478	593751
3	696618	447.18342031478	593892
3	697019	447.483511186651	594033
3	698110	448.298157915178	594174
3	698506	448.583511186651	594315
3	699246	449.133511186651	594456
3	699578	449.38342031478	594597
3	700726	450.233511186651	594738
3	701058	450.483420329069	594879
3	702203	451.261658609334	595020
3	702305	451.317018499323	595161
3	702335	451.330858473033	595302
3	702349	451.333511186651	595443
3	702368	451.344698447218	595584
3	702432	451.358538421876	595725
3	702446	451.372378397002	595866
3	702531	451.413898325143	596007
3	702596	451.455418257344	596148
3	702689	451.510778173067	596289
3	702703	451.524618153065	596430
3	702875	451.621498024546	596571
3	702894	451.635338007782	596712
3	702967	451.690697944563	596853
3	703063	451.718377915202	596994
3	703182	451.765329059324	597135
3	703356	451.817664775257	597276
3	703375	451.831504763637	597417
3	703463	451.873024730772	597558
3	703482	451.886864720472	597699
3	703564	451.91454470083	597840
3	703581	451.942224682446	597981
3	703645	451.956064673717	598122
3	703659	451.969904665291	598263
3	703678	451.983744657167	598404
3	703761	452.011424641806	598545
3	703780	452.025264634563	598686
3	703842	452.052944620935	598827
3	703861	452.066784614543	598968
3	703962	452.108304597021	599109
3	703988	452.122144591719	599250
3	704002	452.135984586682	599391
3	704021	452.149824581906	599532
3	704093	452.177504573126	599673
3	704112	452.191344569115	599814
3	704196	452.205184565352	599955
3	704297	452.252136120413	600096
3	704536	452.433511186651	600237
3	705597	453.233420982823	600378
3	705866	453.383976762454	600519
3	705885	453.397816769889	600660
3	705969	453.411656777353	600801
3	705983	453.425496784842	600942
3	706045	453.45317679989	601083
3	706064	453.467016807444	601224
3	706083	453.480856815017	601365
3	706097	453.494696822605	601506
3	706221	453.533511186651	601647
3	706288	453.550056853081	601788
3	706307	453.563896860721	601929
3	706326	453.577736868365	602070
3	706413	453.60541688366	602211
3	706432	453.619256891308	602352
3	706451	453.633096898952	602493
3	706513	453.660776914225	602634
3	706527	453.67461692185	602775
3	706541	453.688456929466	602916
3	706625	453.702296937069	603057
3	707503	454.333421524263	603198
3	707756	454.48397805201	603339
3	707775	454.497818056319	603480
3	707854	454.511658060531	603621
3	707876	454.53933806866	603762
3	707939	454.553178072575	603903
3	707956	454.567018076388	604044
3	707983	454.580858080099	604185
3	708107	454.622378090604	604326
3	708126	454.633511186651	604467
3	708145	454.636218093894	604608
3	708212	454.663898100148	604749
3	708908	455.183511186651	604890
3	709260	455.43342223345	605031
3	710388	456.283511186651	605172
3	710566	456.383976485327	605313
3	710580	456.397816469505	605454
3	710664	456.411656453513	605595
3	710678	456.425496437352	605736
3	710697	456.439336421021	605877
3	710761	456.453176404521	606018
3	710783	456.480856371013	606159
3	710802	456.494696354005	606300
3	710890	456.508536336828	606441
3	710921	456.522376319481	606582
3	710988	456.550056284282	606723
3	711039	456.583170055193	606864
3	712097	457.383511186651	607005
3	712449	457.63342418563	607146
3	713195	458.183424791568	607287
3	713648	458.483511186651	607428
3	713773	458.533966125855	607569
3	713792	458.547806087745	607710
3	713851	458.561646049537	607851
3	713873	458.589325972831	607992
3	713960	458.61700589574	608133
3	713974	458.630845857053	608274
3	715288	459.583511186651	608415
3	716035	460.133511186651	608556
3	716723	460.633947273568	608697
3	716742	460.647787102553	608838
3	716866	460.683950261541	608979
3	716885	460.697790217954	609120
3	716969	460.711630174397	609261
3	716988	460.725470130869	609402
3	717007	460.739310087372	609543
3	717079	460.766990000474	609684
3	717732	461.233511186651	609825
3	719051	462.233883334411	609966
3	719070	462.247723053388	610107
3	719224	462.333511186651	610248
3	719956	462.833935865221	610389
3	719975	462.84777583455	610530
3	720041	462.861615804009	610671
3	720867	463.433511186651	610812
3	721488	463.88379614224	610953
3	722277	464.433766384792	611094
3	722431	464.533511186651	611235
3	723172	465.002323823356	611376
3	723191	465.016163817206	611517

