version 2
run realP1-0-20210216-23:42:26-11640
attr configname realP1
attr datetime 20210216-23:42:26
attr experiment realP1
attr inifile GwSimV3_2021.ini
attr iterationvars ""
attr iterationvarsf ""
attr measurement ""
attr network NetworkTormV2
attr processid 11640
attr repetition 0
attr replication #0
attr resultdir results
attr runnumber 0
attr seedset 0
param **.mobility.traceFile "\"AllPaths/mobPaths/realP1.movements\""
param **.numNodes 5
param **.application.dataGenerationInterval 1s
param **.application.dataSizeInBytes 10
param **.application.ttl 999999s
param **application.nodesThatGen false
param **application.nodesGenMsg "\"\""
param **application.startMultipleMsg false
param **application.numMultipleMsg 100
param **application.hopsListSize 50
param **.application.endGeneratingMsg 539s
param **.routingLayer "\"RoutingLqeGw\""
param **.routing.maximumCacheSize 5000byte
param **.routing.maximumHopCount 25
param **.routing.useTTL false
param **.routing.waitBFsend 0.1
param **.routing.max_age 999999s
param **.routing.gateway_list "\"\""
param **.routing.actual_gateway "\"\""
param **.routing.gwCheckPeriod 5s
param **.neighboring.resetGPeriod 999s
param **.wirelessIfc.wirelessRange 40m
param **.numNodes 2
param **.application.usedRNG 1
param **.application.dataGenerationInterval 1s
param **.application.dataSizeInBytes 10
param **.application.ttl 999999s
param **application.destinationAddr "\"Wf:00:00:00:00:02\""
param **application.destinationBTAddr "\"Bt:00:00:00:00:02\""
param **application.nodesThatGen true
param **application.nodesGenMsg "\"0\""
param **application.startMultipleMsg true
param **application.numMultipleMsg 100
param **application.hopsListSize 50
param **.application.endGeneratingMsg 999999s
param **.routingLayer "\"RoutingLqeGw\""
param **.routing.maximumCacheSize 5000byte
param **.routing.maximumHopCount 25
param **.routing.useTTL false
param **.routing.waitBFsend 0.1
param **.routing.max_age 999999s
param **.routing.gateway_list "\"\""
param **.routing.actual_gateway "\"\""
param **.routing.gwCheckPeriod 5s
param **.neighboring.antiEntropyInterval 500ms
param **.neighboring.maximumRandomBackoffDuration 1s
param **.neighboring.delayPerDataMsg 0.1
param **neighboring.usedRNG 2
param **.neighboring.GWAddr "\"Wf:00:00:00:00:02\""
param **.neighboring.sendWifiFirst true
param **.neighboring.max_age 999999s
param **.neighboring.max_absent_time 1s
param **.neighboring.maxLengthGraph 15
param **.wirelessIfc.wirelessRange 40m
param **.wirelessIfc.neighbourScanInterval 50ms
param **.wirelessIfc.bandwidthBitRate 100000bps
param **.wirelessIfc.wirelessHeaderSize 32byte
param **.wirelessIfc.minSSI -90
param **.wirelessIfc.limitQueueTime 400ms
param **.wirelessIfc.my_limit_rate 0bps
param **.bluetoothIfc.wirelessRange 40m
param **.bluetoothIfc.neighbourScanInterval 100ms
param **.bluetoothIfc.bandwidthBitRate 100000bps
param **.bluetoothIfc.wirelessHeaderSize 16byte
param **.bluetoothIfc.minSSI -90
param **.mobilityType "\"BonnMotionMobility\""
param **.mobility.traceFile "\"paths/Moves2.movements\""
param **.mobility.is3D false
param **.mobility.nodeId -1

vector 0 NetworkTormV2 neighbourhoodSize:vector ETV
attr source neighbourhoodSize
vector 1 NetworkTormV2 deliveryRatio:vector ETV
attr source sum(totalDataBytesReceived)/sum(totalDataBytesReceivableByAllNodes)
vector 2 NetworkTormV2 dataBytesReceivedSum:vector ETV
attr source sum(dataBytesReceived)
vector 3 NetworkTormV2 totalBytesReceivedSum:vector ETV
attr source sum(totalBytesReceived)
0	16	0.05	2
0	17	0.05	3
0	18	0.05	4
0	19	0.05	3
0	20	0.05	2
0	62	0.1	2
0	64	0.1	3
0	66	0.1	4
0	68	0.1	3
0	70	0.1	2
0	76	0.1	2
0	77	0.1	3
0	78	0.1	4
0	79	0.1	3
0	80	0.1	2
0	136	0.15	2
0	137	0.15	3
0	138	0.15	4
0	139	0.15	3
0	140	0.15	2
0	181	0.2	2
0	182	0.2	3
0	183	0.2	4
0	184	0.2	3
0	185	0.2	2
0	191	0.2	2
0	192	0.2	3
0	193	0.2	4
0	194	0.2	3
0	195	0.2	2
0	246	0.25	2
0	247	0.25	3
0	248	0.25	4
0	249	0.25	3
0	250	0.25	2
0	291	0.3	2
0	292	0.3	3
0	293	0.3	4
0	294	0.3	3
0	295	0.3	2
0	301	0.3	2
0	302	0.3	3
0	303	0.3	4
0	304	0.3	3
0	305	0.3	2
0	356	0.35	2
0	357	0.35	3
0	358	0.35	4
0	359	0.35	3
0	360	0.35	2
0	401	0.4	2
0	402	0.4	3
0	403	0.4	4
0	404	0.4	3
0	405	0.4	2
0	411	0.4	2
0	412	0.4	3
0	413	0.4	4
0	414	0.4	3
0	415	0.4	2
0	466	0.45	2
0	467	0.45	3
0	468	0.45	4
0	469	0.45	3
0	470	0.45	2
0	511	0.5	2
0	512	0.5	3
0	513	0.5	4
0	514	0.5	3
0	515	0.5	2
0	521	0.5	2
0	522	0.5	3
0	523	0.5	4
0	524	0.5	3
0	525	0.5	2
0	576	0.55	2
0	577	0.55	3
0	578	0.55	4
0	579	0.55	3
0	580	0.55	2
0	621	0.6	2
0	622	0.6	3
0	623	0.6	4
0	624	0.6	3
0	625	0.6	2
0	631	0.6	2
0	632	0.6	3
0	633	0.6	4
0	634	0.6	3
0	635	0.6	2
0	686	0.65	2
0	687	0.65	3
0	688	0.65	4
0	689	0.65	3
0	690	0.65	2
0	731	0.7	2
0	732	0.7	3
0	733	0.7	4
0	734	0.7	3
0	735	0.7	2
0	741	0.7	2
0	742	0.7	3
0	743	0.7	4
0	744	0.7	3
0	745	0.7	2
0	796	0.75	2
0	797	0.75	3
0	798	0.75	4
0	799	0.75	3
0	800	0.75	2
0	841	0.8	2
0	842	0.8	3
0	843	0.8	4
0	844	0.8	3
0	845	0.8	2
0	851	0.8	2
0	852	0.8	3
0	853	0.8	4
0	854	0.8	3
0	855	0.8	2
0	906	0.85	2
0	907	0.85	3
0	908	0.85	4
0	909	0.85	3
0	910	0.85	2
0	951	0.9	2
0	952	0.9	3
0	953	0.9	4
0	954	0.9	3
0	955	0.9	2
0	961	0.9	2
0	962	0.9	3
0	963	0.9	4
0	964	0.9	3
0	965	0.9	2
0	1016	0.95	2
0	1017	0.95	3
0	1018	0.95	4
0	1019	0.95	3
0	1020	0.95	2
0	1061	1	2
0	1062	1	3
0	1063	1	4
0	1064	1	3
0	1065	1	2
0	1071	1	2
0	1072	1	3
0	1073	1	4
0	1074	1	3
0	1075	1	2
0	1126	1.05	2
0	1127	1.05	3
0	1128	1.05	4
0	1129	1.05	3
0	1130	1.05	2
0	1176	1.1	2
0	1177	1.1	3
0	1178	1.1	4
0	1179	1.1	3
0	1180	1.1	2
0	1186	1.1	2
0	1187	1.1	3
0	1188	1.1	4
0	1189	1.1	3
0	1190	1.1	2
0	1448	1.15	2
0	1449	1.15	3
0	1450	1.15	4
0	1451	1.15	3
0	1452	1.15	2
0	1571	1.2	2
0	1572	1.2	3
0	1573	1.2	4
0	1574	1.2	3
0	1575	1.2	2
0	1581	1.2	2
0	1582	1.2	3
0	1583	1.2	4
0	1584	1.2	3
0	1585	1.2	2
0	1636	1.25	2
0	1637	1.25	3
0	1638	1.25	4
0	1639	1.25	3
0	1640	1.25	2
0	1681	1.3	2
0	1682	1.3	3
0	1683	1.3	4
0	1684	1.3	3
0	1685	1.3	2
0	1691	1.3	2
0	1692	1.3	3
0	1693	1.3	4
0	1694	1.3	3
0	1695	1.3	2
0	1746	1.35	2
0	1747	1.35	3
0	1748	1.35	4
0	1749	1.35	3
0	1750	1.35	2
0	1791	1.4	2
0	1792	1.4	3
0	1793	1.4	4
0	1794	1.4	3
0	1795	1.4	2
0	1801	1.4	2
0	1802	1.4	3
0	1803	1.4	4
0	1804	1.4	3
0	1805	1.4	2
0	1856	1.45	2
0	1857	1.45	3
0	1858	1.45	4
0	1859	1.45	3
0	1860	1.45	2
0	1901	1.5	2
0	1902	1.5	3
0	1903	1.5	4
0	1904	1.5	3
0	1905	1.5	2
0	1911	1.5	2
0	1912	1.5	3
0	1913	1.5	4
0	1914	1.5	3
0	1915	1.5	2
0	1966	1.55	2
0	1967	1.55	3
0	1968	1.55	4
0	1969	1.55	3
0	1970	1.55	2
0	2011	1.6	2
0	2012	1.6	3
0	2013	1.6	4
0	2014	1.6	3
0	2015	1.6	2
0	2021	1.6	2
0	2022	1.6	3
0	2023	1.6	4
0	2024	1.6	3
0	2025	1.6	2
0	2076	1.65	2
0	2077	1.65	3
0	2078	1.65	4
0	2079	1.65	3
0	2080	1.65	2
0	2328	1.7	2
0	2329	1.7	3
0	2330	1.7	4
0	2331	1.7	3
0	2332	1.7	2
0	2338	1.7	2
0	2339	1.7	3
0	2340	1.7	4
0	2341	1.7	3
0	2342	1.7	2
0	2438	1.75	2
0	2439	1.75	3
0	2440	1.75	4
0	2441	1.75	3
0	2442	1.75	2
0	2483	1.8	2
0	2484	1.8	3
0	2485	1.8	4
0	2486	1.8	3
0	2487	1.8	2
0	2493	1.8	2
0	2494	1.8	3
0	2495	1.8	4
0	2496	1.8	3
0	2497	1.8	2
0	2565	1.85	2
0	2566	1.85	3
0	2567	1.85	4
0	2568	1.85	3
0	2569	1.85	2
0	2610	1.9	2
0	2611	1.9	3
0	2612	1.9	4
0	2613	1.9	3
0	2614	1.9	2
0	2620	1.9	2
0	2621	1.9	3
0	2622	1.9	4
0	2623	1.9	3
0	2624	1.9	2
0	2675	1.95	2
0	2676	1.95	3
0	2677	1.95	4
0	2678	1.95	3
0	2679	1.95	2
0	2720	2	2
0	2721	2	3
0	2722	2	4
0	2723	2	3
0	2724	2	2
0	2730	2	2
0	2731	2	3
0	2732	2	4
0	2733	2	3
0	2734	2	2
0	2785	2.05	2
0	2786	2.05	3
0	2787	2.05	4
0	2788	2.05	3
0	2789	2.05	2
0	2835	2.1	2
0	2836	2.1	3
0	2837	2.1	4
0	2838	2.1	3
0	2839	2.1	2
0	2845	2.1	2
0	2846	2.1	3
0	2847	2.1	4
0	2848	2.1	3
0	2849	2.1	2
0	2905	2.15	2
0	2906	2.15	3
0	2907	2.15	4
0	2908	2.15	3
0	2909	2.15	2
0	2950	2.2	2
0	2951	2.2	3
0	2952	2.2	4
0	2953	2.2	3
0	2954	2.2	2
0	2960	2.2	2
0	2961	2.2	3
0	2962	2.2	4
0	2963	2.2	3
0	2964	2.2	2
0	3223	2.25	2
0	3224	2.25	3
0	3225	2.25	4
0	3226	2.25	3
0	3227	2.25	2
0	3307	2.3	2
0	3308	2.3	3
0	3309	2.3	4
0	3310	2.3	3
0	3311	2.3	2
0	3317	2.3	2
0	3318	2.3	3
0	3319	2.3	4
0	3320	2.3	3
0	3321	2.3	2
0	3372	2.35	2
0	3373	2.35	3
0	3374	2.35	4
0	3375	2.35	3
0	3376	2.35	2
0	3434	2.4	2
0	3435	2.4	3
0	3436	2.4	4
0	3437	2.4	3
0	3438	2.4	2
0	3444	2.4	2
0	3445	2.4	3
0	3446	2.4	4
0	3447	2.4	3
0	3448	2.4	2
0	3499	2.45	2
0	3500	2.45	3
0	3501	2.45	4
0	3502	2.45	3
0	3503	2.45	2
0	3544	2.5	2
0	3545	2.5	3
0	3546	2.5	4
0	3547	2.5	3
0	3548	2.5	2
0	3554	2.5	2
0	3555	2.5	3
0	3556	2.5	4
0	3557	2.5	3
0	3558	2.5	2
0	3609	2.55	2
0	3610	2.55	3
0	3611	2.55	4
0	3612	2.55	3
0	3613	2.55	2
0	3654	2.6	2
0	3655	2.6	3
0	3656	2.6	4
0	3657	2.6	3
0	3658	2.6	2
0	3664	2.6	2
0	3665	2.6	3
0	3666	2.6	4
0	3667	2.6	3
0	3668	2.6	2
0	3719	2.65	2
0	3720	2.65	3
0	3721	2.65	4
0	3722	2.65	3
0	3723	2.65	2
0	3764	2.7	2
0	3765	2.7	3
0	3766	2.7	4
0	3767	2.7	3
0	3768	2.7	2
0	3774	2.7	2
0	3775	2.7	3
0	3776	2.7	4
0	3777	2.7	3
0	3778	2.7	2
0	3834	2.75	2
0	3835	2.75	3
0	3836	2.75	4
0	3837	2.75	3
0	3838	2.75	2
0	4087	2.8	2
0	4088	2.8	3
0	4089	2.8	4
0	4090	2.8	3
0	4091	2.8	2
0	4097	2.8	2
0	4098	2.8	3
0	4099	2.8	4
0	4100	2.8	3
0	4101	2.8	2
0	4197	2.85	2
0	4198	2.85	3
0	4199	2.85	4
0	4200	2.85	3
0	4201	2.85	2
0	4242	2.9	2
0	4243	2.9	3
0	4244	2.9	4
0	4245	2.9	3
0	4246	2.9	2
0	4252	2.9	2
0	4253	2.9	3
0	4254	2.9	4
0	4255	2.9	3
0	4256	2.9	2
0	4312	2.95	2
0	4313	2.95	3
0	4314	2.95	4
0	4315	2.95	3
0	4316	2.95	2
0	4357	3	2
0	4358	3	3
0	4359	3	4
0	4360	3	3
0	4361	3	2
0	4367	3	2
0	4368	3	3
0	4369	3	4
0	4370	3	3
0	4371	3	2
0	4422	3.05	2
0	4423	3.05	3
0	4424	3.05	4
0	4425	3.05	3
0	4426	3.05	2
0	4472	3.1	2
0	4473	3.1	3
0	4474	3.1	4
0	4475	3.1	3
0	4476	3.1	2
0	4482	3.1	2
0	4483	3.1	3
0	4484	3.1	4
0	4485	3.1	3
0	4486	3.1	2
0	4542	3.15	2
0	4543	3.15	3
0	4544	3.15	4
0	4545	3.15	3
0	4546	3.15	2
0	4587	3.2	2
0	4588	3.2	3
0	4589	3.2	4
0	4590	3.2	3
0	4591	3.2	2
0	4597	3.2	2
0	4598	3.2	3
0	4599	3.2	4
0	4600	3.2	3
0	4601	3.2	2
0	4652	3.25	2
0	4653	3.25	3
0	4654	3.25	4
0	4655	3.25	3
0	4656	3.25	2
0	4702	3.3	2
0	4703	3.3	3
0	4704	3.3	4
0	4705	3.3	3
0	4706	3.3	2
0	4712	3.3	2
0	4713	3.3	3
0	4714	3.3	4
0	4715	3.3	3
0	4716	3.3	2
0	4952	3.35	2
0	4953	3.35	3
0	4954	3.35	4
0	4955	3.35	3
0	4956	3.35	2
0	5024	3.4	2
0	5025	3.4	3
0	5026	3.4	4
0	5027	3.4	3
0	5028	3.4	2
0	5034	3.4	2
0	5035	3.4	3
0	5036	3.4	4
0	5037	3.4	3
0	5038	3.4	2
0	5089	3.45	2
0	5090	3.45	3
0	5091	3.45	4
0	5092	3.45	3
0	5093	3.45	2
0	5134	3.5	2
0	5135	3.5	3
0	5136	3.5	4
0	5137	3.5	3
0	5138	3.5	2
0	5144	3.5	2
0	5145	3.5	3
0	5146	3.5	4
0	5147	3.5	3
0	5148	3.5	2
0	5199	3.55	2
0	5200	3.55	3
0	5201	3.55	4
0	5202	3.55	3
0	5203	3.55	2
0	5244	3.6	2
0	5245	3.6	3
0	5246	3.6	4
0	5247	3.6	3
0	5248	3.6	2
0	5254	3.6	2
0	5255	3.6	3
0	5256	3.6	4
0	5257	3.6	3
0	5258	3.6	2
0	5309	3.65	2
0	5310	3.65	3
0	5311	3.65	4
0	5312	3.65	3
0	5313	3.65	2
0	5354	3.7	2
0	5355	3.7	3
0	5356	3.7	4
0	5357	3.7	3
0	5358	3.7	2
0	5364	3.7	2
0	5365	3.7	3
0	5366	3.7	4
0	5367	3.7	3
0	5368	3.7	2
0	5419	3.75	2
0	5420	3.75	3
0	5421	3.75	4
0	5422	3.75	3
0	5423	3.75	2
0	5464	3.8	2
0	5465	3.8	3
0	5466	3.8	4
0	5467	3.8	3
0	5468	3.8	2
0	5474	3.8	2
0	5475	3.8	3
0	5476	3.8	4
0	5477	3.8	3
0	5478	3.8	2
0	5529	3.85	2
0	5530	3.85	3
0	5531	3.85	4
0	5532	3.85	3
0	5533	3.85	2
0	5772	3.9	2
0	5773	3.9	3
0	5774	3.9	4
0	5775	3.9	3
0	5776	3.9	2
0	5782	3.9	2
0	5783	3.9	3
0	5784	3.9	4
0	5785	3.9	3
0	5786	3.9	2
0	5846	3.95	2
0	5847	3.95	3
0	5848	3.95	4
0	5849	3.95	3
0	5850	3.95	2
0	5891	4	2
0	5892	4	3
0	5893	4	4
0	5894	4	3
0	5895	4	2
0	5901	4	2
0	5902	4	3
0	5903	4	4
0	5904	4	3
0	5905	4	2
0	5979	4.05	2
0	5980	4.05	3
0	5981	4.05	4
0	5982	4.05	3
0	5983	4.05	2
0	6029	4.1	2
0	6030	4.1	3
0	6031	4.1	4
0	6032	4.1	3
0	6033	4.1	2
0	6039	4.1	2
0	6040	4.1	3
0	6041	4.1	4
0	6042	4.1	3
0	6043	4.1	2
0	6099	4.15	2
0	6100	4.15	3
0	6101	4.15	4
0	6102	4.15	3
0	6103	4.15	2
0	6144	4.2	2
0	6145	4.2	3
0	6146	4.2	4
0	6147	4.2	3
0	6148	4.2	2
0	6154	4.2	2
0	6155	4.2	3
0	6156	4.2	4
0	6157	4.2	3
0	6158	4.2	2
0	6209	4.25	2
0	6210	4.25	3
0	6211	4.25	4
0	6212	4.25	3
0	6213	4.25	2
0	6254	4.3	2
0	6255	4.3	3
0	6256	4.3	4
0	6257	4.3	3
0	6258	4.3	2
0	6264	4.3	2
0	6265	4.3	3
0	6266	4.3	4
0	6267	4.3	3
0	6268	4.3	2
0	6324	4.35	2
0	6325	4.35	3
0	6326	4.35	4
0	6327	4.35	3
0	6328	4.35	2
0	6392	4.4	2
0	6393	4.4	3
0	6394	4.4	4
0	6395	4.4	3
0	6396	4.4	2
0	6402	4.4	2
0	6403	4.4	3
0	6404	4.4	4
0	6405	4.4	3
0	6406	4.4	2
0	6655	4.45	2
0	6656	4.45	3
0	6657	4.45	4
0	6658	4.45	3
0	6659	4.45	2
0	6709	4.5	2
0	6710	4.5	3
0	6711	4.5	4
0	6712	4.5	3
0	6713	4.5	2
0	6719	4.5	2
0	6720	4.5	3
0	6721	4.5	4
0	6722	4.5	3
0	6723	4.5	2
0	6797	4.55	2
0	6798	4.55	3
0	6799	4.55	4
0	6800	4.55	3
0	6801	4.55	2
0	6865	4.6	2
0	6866	4.6	3
0	6867	4.6	4
0	6868	4.6	3
0	6869	4.6	2
0	6875	4.6	2
0	6876	4.6	3
0	6877	4.6	4
0	6878	4.6	3
0	6879	4.6	2
0	6930	4.65	2
0	6931	4.65	3
0	6932	4.65	4
0	6933	4.65	3
0	6934	4.65	2
0	6975	4.7	2
0	6976	4.7	3
0	6977	4.7	4
0	6978	4.7	3
0	6979	4.7	2
0	6985	4.7	2
0	6986	4.7	3
0	6987	4.7	4
0	6988	4.7	3
0	6989	4.7	2
0	7040	4.75	2
0	7041	4.75	3
0	7042	4.75	4
0	7043	4.75	3
0	7044	4.75	2
0	7085	4.8	2
0	7086	4.8	3
0	7087	4.8	4
0	7088	4.8	3
0	7089	4.8	2
0	7095	4.8	2
0	7096	4.8	3
0	7097	4.8	4
0	7098	4.8	3
0	7099	4.8	2
0	7150	4.85	2
0	7151	4.85	3
0	7152	4.85	4
0	7153	4.85	3
0	7154	4.85	2
0	7218	4.9	2
0	7219	4.9	3
0	7220	4.9	4
0	7221	4.9	3
0	7222	4.9	2
0	7228	4.9	2
0	7229	4.9	3
0	7230	4.9	4
0	7231	4.9	3
0	7232	4.9	2
0	7288	4.95	2
0	7289	4.95	3
0	7290	4.95	4
0	7291	4.95	3
0	7292	4.95	2
0	7536	5	2
0	7537	5	3
0	7538	5	4
0	7539	5	3
0	7540	5	2
0	7546	5	2
0	7547	5	3
0	7548	5	4
0	7549	5	3
0	7550	5	2
0	7615	5.05	2
0	7616	5.05	3
0	7617	5.05	4
0	7618	5.05	3
0	7619	5.05	2
0	7665	5.1	2
0	7666	5.1	3
0	7667	5.1	4
0	7668	5.1	3
0	7669	5.1	2
0	7675	5.1	2
0	7676	5.1	3
0	7677	5.1	4
0	7678	5.1	3
0	7679	5.1	2
0	7758	5.15	2
0	7759	5.15	3
0	7760	5.15	4
0	7761	5.15	3
0	7762	5.15	2
0	7803	5.2	2
0	7804	5.2	3
0	7805	5.2	4
0	7806	5.2	3
0	7807	5.2	2
0	7813	5.2	2
0	7814	5.2	3
0	7815	5.2	4
0	7816	5.2	3
0	7817	5.2	2
0	7868	5.25	2
0	7869	5.25	3
0	7870	5.25	4
0	7871	5.25	3
0	7872	5.25	2
0	7913	5.3	2
0	7914	5.3	3
0	7915	5.3	4
0	7916	5.3	3
0	7917	5.3	2
0	7923	5.3	2
0	7924	5.3	3
0	7925	5.3	4
0	7926	5.3	3
0	7927	5.3	2
0	7978	5.35	2
0	7979	5.35	3
0	7980	5.35	4
0	7981	5.35	3
0	7982	5.35	2
0	8023	5.4	2
0	8024	5.4	3
0	8025	5.4	4
0	8026	5.4	3
0	8027	5.4	2
0	8033	5.4	2
0	8034	5.4	3
0	8035	5.4	4
0	8036	5.4	3
0	8037	5.4	2
0	8088	5.45	2
0	8089	5.45	3
0	8090	5.45	4
0	8091	5.45	3
0	8092	5.45	2
0	8133	5.5	2
0	8134	5.5	3
0	8135	5.5	4
0	8136	5.5	3
0	8137	5.5	2
0	8143	5.5	2
0	8144	5.5	3
0	8145	5.5	4
0	8146	5.5	3
0	8147	5.5	2
0	8396	5.55	2
0	8397	5.55	3
0	8398	5.55	4
0	8399	5.55	3
0	8400	5.55	2
0	8450	5.6	2
0	8451	5.6	3
0	8452	5.6	4
0	8453	5.6	3
0	8454	5.6	2
0	8460	5.6	2
0	8461	5.6	3
0	8462	5.6	4
0	8463	5.6	3
0	8464	5.6	2
0	8515	5.65	2
0	8516	5.65	3
0	8517	5.65	4
0	8518	5.65	3
0	8519	5.65	2
0	8583	5.7	2
0	8584	5.7	3
0	8585	5.7	4
0	8586	5.7	3
0	8587	5.7	2
0	8593	5.7	2
0	8594	5.7	3
0	8595	5.7	4
0	8596	5.7	3
0	8597	5.7	2
0	8648	5.75	2
0	8649	5.75	3
0	8650	5.75	4
0	8651	5.75	3
0	8652	5.75	2
0	8693	5.8	2
0	8694	5.8	3
0	8695	5.8	4
0	8696	5.8	3
0	8697	5.8	2
0	8703	5.8	2
0	8704	5.8	3
0	8705	5.8	4
0	8706	5.8	3
0	8707	5.8	2
0	8758	5.85	2
0	8759	5.85	3
0	8760	5.85	4
0	8761	5.85	3
0	8762	5.85	2
0	8803	5.9	2
0	8804	5.9	3
0	8805	5.9	4
0	8806	5.9	3
0	8807	5.9	2
0	8813	5.9	2
0	8814	5.9	3
0	8815	5.9	4
0	8816	5.9	3
0	8817	5.9	2
0	8868	5.95	2
0	8869	5.95	3
0	8870	5.95	4
0	8871	5.95	3
0	8872	5.95	2
0	8918	6	2
0	8919	6	3
0	8920	6	4
0	8921	6	3
0	8922	6	2
0	8928	6	2
0	8929	6	3
0	8930	6	4
0	8931	6	3
0	8932	6	2
0	8983	6.05	2
0	8984	6.05	3
0	8985	6.05	4
0	8986	6.05	3
0	8987	6.05	2
0	9231	6.1	2
0	9232	6.1	3
0	9233	6.1	4
0	9234	6.1	3
0	9235	6.1	2
0	9241	6.1	2
0	9242	6.1	3
0	9243	6.1	4
0	9244	6.1	3
0	9245	6.1	2
0	9333	6.15	2
0	9334	6.15	3
0	9335	6.15	4
0	9336	6.15	3
0	9337	6.15	2
0	9378	6.2	2
0	9379	6.2	3
0	9380	6.2	4
0	9381	6.2	3
0	9382	6.2	2
0	9388	6.2	2
0	9389	6.2	3
0	9390	6.2	4
0	9391	6.2	3
0	9392	6.2	2
0	9466	6.25	2
0	9467	6.25	3
0	9468	6.25	4
0	9469	6.25	3
0	9470	6.25	2
0	9534	6.3	2
0	9535	6.3	3
0	9536	6.3	4
0	9537	6.3	3
0	9538	6.3	2
0	9544	6.3	2
0	9545	6.3	3
0	9546	6.3	4
0	9547	6.3	3
0	9548	6.3	2
0	9599	6.35	2
0	9600	6.35	3
0	9601	6.35	4
0	9602	6.35	3
0	9603	6.35	2
0	9644	6.4	2
0	9645	6.4	3
0	9646	6.4	4
0	9647	6.4	3
0	9648	6.4	2
0	9654	6.4	2
0	9655	6.4	3
0	9656	6.4	4
0	9657	6.4	3
0	9658	6.4	2
0	9709	6.45	2
0	9710	6.45	3
0	9711	6.45	4
0	9712	6.45	3
0	9713	6.45	2
0	9759	6.5	2
0	9760	6.5	3
0	9761	6.5	4
0	9762	6.5	3
0	9763	6.5	2
0	9769	6.5	2
0	9770	6.5	3
0	9771	6.5	4
0	9772	6.5	3
0	9773	6.5	2
0	9824	6.55	2
0	9825	6.55	3
0	9826	6.55	4
0	9827	6.55	3
0	9828	6.55	2
0	9869	6.6	2
0	9870	6.6	3
0	9871	6.6	4
0	9872	6.6	3
0	9873	6.6	2
0	9879	6.6	2
0	9880	6.6	3
0	9881	6.6	4
0	9882	6.6	3
0	9883	6.6	2
0	10146	6.65	2
0	10147	6.65	3
0	10148	6.65	4
0	10149	6.65	3
0	10150	6.65	2
0	10232	6.7	2
0	10233	6.7	3
0	10234	6.7	4
0	10235	6.7	3
0	10236	6.7	2
0	10242	6.7	2
0	10243	6.7	3
0	10244	6.7	4
0	10245	6.7	3
0	10246	6.7	2
0	10297	6.75	2
0	10298	6.75	3
0	10299	6.75	4
0	10300	6.75	3
0	10301	6.75	2
0	10365	6.8	2
0	10366	6.8	3
0	10367	6.8	4
0	10368	6.8	3
0	10369	6.8	2
0	10375	6.8	2
0	10376	6.8	3
0	10377	6.8	4
0	10378	6.8	3
0	10379	6.8	2
0	10447	6.85	2
0	10448	6.85	3
0	10449	6.85	4
0	10450	6.85	3
0	10451	6.85	2
0	10492	6.9	2
0	10493	6.9	3
0	10494	6.9	4
0	10495	6.9	3
0	10496	6.9	2
0	10502	6.9	2
0	10503	6.9	3
0	10504	6.9	4
0	10505	6.9	3
0	10506	6.9	2
0	10557	6.95	2
0	10558	6.95	3
0	10559	6.95	4
0	10560	6.95	3
0	10561	6.95	2
0	10607	7	2
0	10608	7	3
0	10609	7	4
0	10610	7	3
0	10611	7	2
0	10617	7	2
0	10618	7	3
0	10619	7	4
0	10620	7	3
0	10621	7	2
0	10677	7.05	2
0	10678	7.05	3
0	10679	7.05	4
0	10680	7.05	3
0	10681	7.05	2
0	10727	7.1	2
0	10728	7.1	3
0	10729	7.1	4
0	10730	7.1	3
0	10731	7.1	2
0	10737	7.1	2
0	10738	7.1	3
0	10739	7.1	4
0	10740	7.1	3
0	10741	7.1	2
0	10797	7.15	2
0	10798	7.15	3
0	10799	7.15	4
0	10800	7.15	3
0	10801	7.15	2
0	11040	7.2	2
0	11041	7.2	3
0	11042	7.2	4
0	11043	7.2	3
0	11044	7.2	2
0	11050	7.2	2
0	11051	7.2	3
0	11052	7.2	4
0	11053	7.2	3
0	11054	7.2	2
0	11137	7.25	2
0	11138	7.25	3
0	11139	7.25	4
0	11140	7.25	3
0	11141	7.25	2
0	11182	7.3	2
0	11183	7.3	3
0	11184	7.3	4
0	11185	7.3	3
0	11186	7.3	2
0	11192	7.3	2
0	11193	7.3	3
0	11194	7.3	4
0	11195	7.3	3
0	11196	7.3	2
0	11252	7.35	2
0	11253	7.35	3
0	11254	7.35	4
0	11255	7.35	3
0	11256	7.35	2
0	11302	7.4	2
0	11303	7.4	3
0	11304	7.4	4
0	11305	7.4	3
0	11306	7.4	2
0	11312	7.4	2
0	11313	7.4	3
0	11314	7.4	4
0	11315	7.4	3
0	11316	7.4	2
0	11367	7.45	2
0	11368	7.45	3
0	11369	7.45	4
0	11370	7.45	3
0	11371	7.45	2
0	11412	7.5	2
0	11413	7.5	3
0	11414	7.5	4
0	11415	7.5	3
0	11416	7.5	2
0	11422	7.5	2
0	11423	7.5	3
0	11424	7.5	4
0	11425	7.5	3
0	11426	7.5	2
0	11477	7.55	2
0	11478	7.55	3
0	11479	7.55	4
0	11480	7.55	3
0	11481	7.55	2
0	11522	7.6	2
0	11523	7.6	3
0	11524	7.6	4
0	11525	7.6	3
0	11526	7.6	2
0	11532	7.6	2
0	11533	7.6	3
0	11534	7.6	4
0	11535	7.6	3
0	11536	7.6	2
0	11587	7.65	2
0	11588	7.65	3
0	11589	7.65	4
0	11590	7.65	3
0	11591	7.65	2
0	11632	7.7	2
0	11633	7.7	3
0	11634	7.7	4
0	11635	7.7	3
0	11636	7.7	2
0	11642	7.7	2
0	11643	7.7	3
0	11644	7.7	4
0	11645	7.7	3
0	11646	7.7	2
0	11881	7.75	2
0	11882	7.75	3
0	11883	7.75	4
0	11884	7.75	3
0	11885	7.75	2
0	11926	7.8	2
0	11927	7.8	3
0	11928	7.8	4
0	11929	7.8	3
0	11930	7.8	2
0	11936	7.8	2
0	11937	7.8	3
0	11938	7.8	4
0	11939	7.8	3
0	11940	7.8	2
0	11991	7.85	2
0	11992	7.85	3
0	11993	7.85	4
0	11994	7.85	3
0	11995	7.85	2
0	12036	7.9	2
0	12037	7.9	3
0	12038	7.9	4
0	12039	7.9	3
0	12040	7.9	2
0	12046	7.9	2
0	12047	7.9	3
0	12048	7.9	4
0	12049	7.9	3
0	12050	7.9	2
0	12101	7.95	2
0	12102	7.95	3
0	12103	7.95	4
0	12104	7.95	3
0	12105	7.95	2
0	12151	8	2
0	12152	8	3
0	12153	8	4
0	12154	8	3
0	12155	8	2
0	12161	8	2
0	12162	8	3
0	12163	8	4
0	12164	8	3
0	12165	8	2
0	12216	8.05	2
0	12217	8.05	3
0	12218	8.05	4
0	12219	8.05	3
0	12220	8.05	2
0	12266	8.1	2
0	12267	8.1	3
0	12268	8.1	4
0	12269	8.1	3
0	12270	8.1	2
0	12276	8.1	2
0	12277	8.1	3
0	12278	8.1	4
0	12279	8.1	3
0	12280	8.1	2
0	12336	8.15	2
0	12337	8.15	3
0	12338	8.15	4
0	12339	8.15	3
0	12340	8.15	2
0	12398	8.2	2
0	12399	8.2	3
0	12400	8.2	4
0	12401	8.2	3
0	12402	8.2	2
0	12408	8.2	2
0	12409	8.2	3
0	12410	8.2	4
0	12411	8.2	3
0	12412	8.2	2
0	12463	8.25	2
0	12464	8.25	3
0	12465	8.25	4
0	12466	8.25	3
0	12467	8.25	2
0	12692	8.3	2
0	12693	8.3	3
0	12694	8.3	4
0	12695	8.3	3
0	12696	8.3	2
0	12702	8.3	2
0	12703	8.3	3
0	12704	8.3	4
0	12705	8.3	3
0	12706	8.3	2
0	12762	8.35	2
0	12763	8.35	3
0	12764	8.35	4
0	12765	8.35	3
0	12766	8.35	2
0	12807	8.4	2
0	12808	8.4	3
0	12809	8.4	4
0	12810	8.4	3
0	12811	8.4	2
0	12817	8.4	2
0	12818	8.4	3
0	12819	8.4	4
0	12820	8.4	3
0	12821	8.4	2
0	12872	8.45	2
0	12873	8.45	3
0	12874	8.45	4
0	12875	8.45	3
0	12876	8.45	2
0	12917	8.5	2
0	12918	8.5	3
0	12919	8.5	4
0	12920	8.5	3
0	12921	8.5	2
0	12927	8.5	2
0	12928	8.5	3
0	12929	8.5	4
0	12930	8.5	3
0	12931	8.5	2
0	12982	8.55	2
0	12983	8.55	3
0	12984	8.55	4
0	12985	8.55	3
0	12986	8.55	2
0	13027	8.6	2
0	13028	8.6	3
0	13029	8.6	4
0	13030	8.6	3
0	13031	8.6	2
0	13037	8.6	2
0	13038	8.6	3
0	13039	8.6	4
0	13040	8.6	3
0	13041	8.6	2
0	13092	8.65	2
0	13093	8.65	3
0	13094	8.65	4
0	13095	8.65	3
0	13096	8.65	2
0	13137	8.7	2
0	13138	8.7	3
0	13139	8.7	4
0	13140	8.7	3
0	13141	8.7	2
0	13147	8.7	2
0	13148	8.7	3
0	13149	8.7	4
0	13150	8.7	3
0	13151	8.7	2
0	13202	8.75	2
0	13203	8.75	3
0	13204	8.75	4
0	13205	8.75	3
0	13206	8.75	2
0	13270	8.8	2
0	13271	8.8	3
0	13272	8.8	4
0	13273	8.8	3
0	13274	8.8	2
0	13280	8.8	2
0	13281	8.8	3
0	13282	8.8	4
0	13283	8.8	3
0	13284	8.8	2
0	13542	8.85	2
0	13543	8.85	3
0	13544	8.85	4
0	13545	8.85	3
0	13546	8.85	2
0	13587	8.9	2
0	13588	8.9	3
0	13589	8.9	4
0	13590	8.9	3
0	13591	8.9	2
0	13597	8.9	2
0	13598	8.9	3
0	13599	8.9	4
0	13600	8.9	3
0	13601	8.9	2
0	13675	8.95	2
0	13676	8.95	3
0	13677	8.95	4
0	13678	8.95	3
0	13679	8.95	2
0	13748	9	2
0	13749	9	3
0	13750	9	4
0	13751	9	3
0	13752	9	2
0	13758	9	2
0	13759	9	3
0	13760	9	4
0	13761	9	3
0	13762	9	2
0	13813	9.05	2
0	13814	9.05	3
0	13815	9.05	4
0	13816	9.05	3
0	13817	9.05	2
0	13863	9.1	2
0	13864	9.1	3
0	13865	9.1	4
0	13866	9.1	3
0	13867	9.1	2
0	13873	9.1	2
0	13874	9.1	3
0	13875	9.1	4
0	13876	9.1	3
0	13877	9.1	2
0	13933	9.15	2
0	13934	9.15	3
0	13935	9.15	4
0	13936	9.15	3
0	13937	9.15	2
0	13978	9.2	2
0	13979	9.2	3
0	13980	9.2	4
0	13981	9.2	3
0	13982	9.2	2
0	13988	9.2	2
0	13989	9.2	3
0	13990	9.2	4
0	13991	9.2	3
0	13992	9.2	2
0	14043	9.25	2
0	14044	9.25	3
0	14045	9.25	4
0	14046	9.25	3
0	14047	9.25	2
0	14088	9.3	2
0	14089	9.3	3
0	14090	9.3	4
0	14091	9.3	3
0	14092	9.3	2
0	14098	9.3	2
0	14099	9.3	3
0	14100	9.3	4
0	14101	9.3	3
0	14102	9.3	2
0	14176	9.35	2
0	14177	9.35	3
0	14178	9.35	4
0	14179	9.35	3
0	14180	9.35	2
0	14428	9.4	2
0	14429	9.4	3
0	14430	9.4	4
0	14431	9.4	3
0	14432	9.4	2
0	14438	9.4	2
0	14439	9.4	3
0	14440	9.4	4
0	14441	9.4	3
0	14442	9.4	2
0	14493	9.45	2
0	14494	9.45	3
0	14495	9.45	4
0	14496	9.45	3
0	14497	9.45	2
0	14555	9.5	2
0	14556	9.5	3
0	14557	9.5	4
0	14558	9.5	3
0	14559	9.5	2
0	14565	9.5	2
0	14566	9.5	3
0	14567	9.5	4
0	14568	9.5	3
0	14569	9.5	2
0	14625	9.55	2
0	14626	9.55	3
0	14627	9.55	4
0	14628	9.55	3
0	14629	9.55	2
0	14670	9.6	2
0	14671	9.6	3
0	14672	9.6	4
0	14673	9.6	3
0	14674	9.6	2
0	14680	9.6	2
0	14681	9.6	3
0	14682	9.6	4
0	14683	9.6	3
0	14684	9.6	2
0	14735	9.65	2
0	14736	9.65	3
0	14737	9.65	4
0	14738	9.65	3
0	14739	9.65	2
0	14780	9.7	2
0	14781	9.7	3
0	14782	9.7	4
0	14783	9.7	3
0	14784	9.7	2
0	14790	9.7	2
0	14791	9.7	3
0	14792	9.7	4
0	14793	9.7	3
0	14794	9.7	2
0	14845	9.75	2
0	14846	9.75	3
0	14847	9.75	4
0	14848	9.75	3
0	14849	9.75	2
0	14895	9.8	2
0	14896	9.8	3
0	14897	9.8	4
0	14898	9.8	3
0	14899	9.8	2
0	14905	9.8	2
0	14906	9.8	3
0	14907	9.8	4
0	14908	9.8	3
0	14909	9.8	2
0	14960	9.85	2
0	14961	9.85	3
0	14962	9.85	4
0	14963	9.85	3
0	14964	9.85	2
0	15010	9.9	2
0	15011	9.9	3
0	15012	9.9	4
0	15013	9.9	3
0	15014	9.9	2
0	15020	9.9	2
0	15021	9.9	3
0	15022	9.9	4
0	15023	9.9	3
0	15024	9.9	2
0	15276	9.95	2
0	15277	9.95	3
0	15278	9.95	4
0	15279	9.95	3
0	15280	9.95	2
0	15326	10	2
0	15327	10	3
0	15328	10	4
0	15329	10	3
0	15330	10	2
0	15336	10	2
0	15337	10	3
0	15338	10	4
0	15339	10	3
0	15340	10	2
0	15391	10.05	2
0	15392	10.05	3
0	15393	10.05	4
0	15394	10.05	3
0	15395	10.05	2
0	15441	10.1	2
0	15442	10.1	3
0	15443	10.1	4
0	15444	10.1	3
0	15445	10.1	2
0	15451	10.1	2
0	15452	10.1	3
0	15453	10.1	4
0	15454	10.1	3
0	15455	10.1	2
0	15511	10.15	2
0	15512	10.15	3
0	15513	10.15	4
0	15514	10.15	3
0	15515	10.15	2
0	15556	10.2	2
0	15557	10.2	3
0	15558	10.2	4
0	15559	10.2	3
0	15560	10.2	2
0	15566	10.2	2
0	15567	10.2	3
0	15568	10.2	4
0	15569	10.2	3
0	15570	10.2	2
0	15621	10.25	2
0	15622	10.25	3
0	15623	10.25	4
0	15624	10.25	3
0	15625	10.25	2
0	15666	10.3	2
0	15667	10.3	3
0	15668	10.3	4
0	15669	10.3	3
0	15670	10.3	2
0	15676	10.3	2
0	15677	10.3	3
0	15678	10.3	4
0	15679	10.3	3
0	15680	10.3	2
0	15736	10.35	2
0	15737	10.35	3
0	15738	10.35	4
0	15739	10.35	3
0	15740	10.35	2
0	15781	10.4	2
0	15782	10.4	3
0	15783	10.4	4
0	15784	10.4	3
0	15785	10.4	2
0	15791	10.4	2
0	15792	10.4	3
0	15793	10.4	4
0	15794	10.4	3
0	15795	10.4	2
0	15846	10.45	2
0	15847	10.45	3
0	15848	10.45	4
0	15849	10.45	3
0	15850	10.45	2
0	16075	10.5	2
0	16076	10.5	3
0	16077	10.5	4
0	16078	10.5	3
0	16079	10.5	2
0	16085	10.5	2
0	16086	10.5	3
0	16087	10.5	4
0	16088	10.5	3
0	16089	10.5	2
0	16140	10.55	2
0	16141	10.55	3
0	16142	10.55	4
0	16143	10.55	3
0	16144	10.55	2
0	16185	10.6	2
0	16186	10.6	3
0	16187	10.6	4
0	16188	10.6	3
0	16189	10.6	2
0	16195	10.6	2
0	16196	10.6	3
0	16197	10.6	4
0	16198	10.6	3
0	16199	10.6	2
0	16250	10.65	2
0	16251	10.65	3
0	16252	10.65	4
0	16253	10.65	3
0	16254	10.65	2
0	16295	10.7	2
0	16296	10.7	3
0	16297	10.7	4
0	16298	10.7	3
0	16299	10.7	2
0	16305	10.7	2
0	16306	10.7	3
0	16307	10.7	4
0	16308	10.7	3
0	16309	10.7	2
0	16360	10.75	2
0	16361	10.75	3
0	16362	10.75	4
0	16363	10.75	3
0	16364	10.75	2
0	16405	10.8	2
0	16406	10.8	3
0	16407	10.8	4
0	16408	10.8	3
0	16409	10.8	2
0	16415	10.8	2
0	16416	10.8	3
0	16417	10.8	4
0	16418	10.8	3
0	16419	10.8	2
0	16470	10.85	2
0	16471	10.85	3
0	16472	10.85	4
0	16473	10.85	3
0	16474	10.85	2
0	16515	10.9	2
0	16516	10.9	3
0	16517	10.9	4
0	16518	10.9	3
0	16519	10.9	2
0	16525	10.9	2
0	16526	10.9	3
0	16527	10.9	4
0	16528	10.9	3
0	16529	10.9	2
0	16580	10.95	2
0	16581	10.95	3
0	16582	10.95	4
0	16583	10.95	3
0	16584	10.95	2
0	16635	11	2
0	16636	11	3
0	16637	11	4
0	16638	11	3
0	16639	11	2
0	16645	11	2
0	16646	11	3
0	16647	11	4
0	16648	11	3
0	16649	11	2
0	16906	11.05	2
0	16907	11.05	3
0	16908	11.05	4
0	16909	11.05	3
0	16910	11.05	2
0	17107	11.1	2
0	17108	11.1	3
0	17109	11.1	4
0	17110	11.1	3
0	17111	11.1	2
0	17117	11.1	2
0	17118	11.1	3
0	17119	11.1	4
0	17120	11.1	3
0	17121	11.1	2
0	17308	11.15	2
0	17309	11.15	3
0	17310	11.15	4
0	17311	11.15	3
0	17312	11.15	2
0	17494	11.2	2
0	17495	11.2	3
0	17496	11.2	4
0	17497	11.2	3
0	17498	11.2	2
0	17504	11.2	2
0	17505	11.2	3
0	17506	11.2	4
0	17507	11.2	3
0	17508	11.2	2
0	17617	11.25	2
0	17618	11.25	3
0	17619	11.25	4
0	17620	11.25	3
0	17621	11.25	2
0	17662	11.3	2
0	17663	11.3	3
0	17664	11.3	4
0	17665	11.3	3
0	17666	11.3	2
0	17672	11.3	2
0	17673	11.3	3
0	17674	11.3	4
0	17675	11.3	3
0	17676	11.3	2
0	17727	11.35	2
0	17728	11.35	3
0	17729	11.35	4
0	17730	11.35	3
0	17731	11.35	2
0	17772	11.4	2
0	17773	11.4	3
0	17774	11.4	4
0	17775	11.4	3
0	17776	11.4	2
0	17782	11.4	2
0	17783	11.4	3
0	17784	11.4	4
0	17785	11.4	3
0	17786	11.4	2
0	17837	11.45	2
0	17838	11.45	3
0	17839	11.45	4
0	17840	11.45	3
0	17841	11.45	2
0	17882	11.5	2
0	17883	11.5	3
0	17884	11.5	4
0	17885	11.5	3
0	17886	11.5	2
0	17892	11.5	2
0	17893	11.5	3
0	17894	11.5	4
0	17895	11.5	3
0	17896	11.5	2
0	17952	11.55	2
0	17953	11.55	3
0	17954	11.55	4
0	17955	11.55	3
0	17956	11.55	2
0	18183	11.6	2
0	18184	11.6	3
0	18185	11.6	4
0	18186	11.6	3
0	18187	11.6	2
0	18193	11.6	2
0	18194	11.6	3
0	18195	11.6	4
0	18196	11.6	3
0	18197	11.6	2
0	18324	11.65	2
0	18325	11.65	3
0	18326	11.65	4
0	18327	11.65	3
0	18328	11.65	2
0	18372	11.7	2
0	18373	11.7	3
0	18374	11.7	4
0	18375	11.7	3
0	18376	11.7	2
0	18382	11.7	2
0	18383	11.7	3
0	18384	11.7	4
0	18385	11.7	3
0	18386	11.7	2
0	18437	11.75	2
0	18438	11.75	3
0	18439	11.75	4
0	18440	11.75	3
0	18441	11.75	2
0	18505	11.8	2
0	18506	11.8	3
0	18507	11.8	4
0	18508	11.8	3
0	18509	11.8	2
0	18515	11.8	2
0	18516	11.8	3
0	18517	11.8	4
0	18518	11.8	3
0	18519	11.8	2
0	18570	11.85	2
0	18571	11.85	3
0	18572	11.85	4
0	18573	11.85	3
0	18574	11.85	2
0	18615	11.9	2
0	18616	11.9	3
0	18617	11.9	4
0	18618	11.9	3
0	18619	11.9	2
0	18625	11.9	2
0	18626	11.9	3
0	18627	11.9	4
0	18628	11.9	3
0	18629	11.9	2
0	18703	11.95	2
0	18704	11.95	3
0	18705	11.95	4
0	18706	11.95	3
0	18707	11.95	2
0	18753	12	2
0	18754	12	3
0	18755	12	4
0	18756	12	3
0	18757	12	2
0	18763	12	2
0	18764	12	3
0	18765	12	4
0	18766	12	3
0	18767	12	2
0	18818	12.05	2
0	18819	12.05	3
0	18820	12.05	4
0	18821	12.05	3
0	18822	12.05	2
0	18873	12.1	2
0	18874	12.1	3
0	18875	12.1	4
0	18876	12.1	3
0	18877	12.1	2
0	18883	12.1	2
0	18884	12.1	3
0	18885	12.1	4
0	18886	12.1	3
0	18887	12.1	2
0	19130	12.15	2
0	19131	12.15	3
0	19132	12.15	4
0	19133	12.15	3
0	19134	12.15	2
0	19199	12.2	2
0	19200	12.2	3
0	19201	12.2	4
0	19202	12.2	3
0	19203	12.2	2
0	19209	12.2	2
0	19210	12.2	3
0	19211	12.2	4
0	19212	12.2	3
0	19213	12.2	2
0	19264	12.25	2
0	19265	12.25	3
0	19266	12.25	4
0	19267	12.25	3
0	19268	12.25	2
0	19309	12.3	2
0	19310	12.3	3
0	19311	12.3	4
0	19312	12.3	3
0	19313	12.3	2
0	19319	12.3	2
0	19320	12.3	3
0	19321	12.3	4
0	19322	12.3	3
0	19323	12.3	2
0	19374	12.35	2
0	19375	12.35	3
0	19376	12.35	4
0	19377	12.35	3
0	19378	12.35	2
0	19419	12.4	2
0	19420	12.4	3
0	19421	12.4	4
0	19422	12.4	3
0	19423	12.4	2
0	19429	12.4	2
0	19430	12.4	3
0	19431	12.4	4
0	19432	12.4	3
0	19433	12.4	2
0	19484	12.45	2
0	19485	12.45	3
0	19486	12.45	4
0	19487	12.45	3
0	19488	12.45	2
0	19529	12.5	2
0	19530	12.5	3
0	19531	12.5	4
0	19532	12.5	3
0	19533	12.5	2
0	19539	12.5	2
0	19540	12.5	3
0	19541	12.5	4
0	19542	12.5	3
0	19543	12.5	2
0	19594	12.55	2
0	19595	12.55	3
0	19596	12.55	4
0	19597	12.55	3
0	19598	12.55	2
0	19644	12.6	2
0	19645	12.6	3
0	19646	12.6	4
0	19647	12.6	3
0	19648	12.6	2
0	19654	12.6	2
0	19655	12.6	3
0	19656	12.6	4
0	19657	12.6	3
0	19658	12.6	2
0	19709	12.65	2
0	19710	12.65	3
0	19711	12.65	4
0	19712	12.65	3
0	19713	12.65	2
0	19938	12.7	2
0	19939	12.7	3
0	19940	12.7	4
0	19941	12.7	3
0	19942	12.7	2
0	19948	12.7	2
0	19949	12.7	3
0	19950	12.7	4
0	19951	12.7	3
0	19952	12.7	2
0	20026	12.75	2
0	20027	12.75	3
0	20028	12.75	4
0	20029	12.75	3
0	20030	12.75	2
0	20071	12.8	2
0	20072	12.8	3
0	20073	12.8	4
0	20074	12.8	3
0	20075	12.8	2
0	20081	12.8	2
0	20082	12.8	3
0	20083	12.8	4
0	20084	12.8	3
0	20085	12.8	2
0	20136	12.85	2
0	20137	12.85	3
0	20138	12.85	4
0	20139	12.85	3
0	20140	12.85	2
0	20181	12.9	2
0	20182	12.9	3
0	20183	12.9	4
0	20184	12.9	3
0	20185	12.9	2
0	20191	12.9	2
0	20192	12.9	3
0	20193	12.9	4
0	20194	12.9	3
0	20195	12.9	2
0	20246	12.95	2
0	20247	12.95	3
0	20248	12.95	4
0	20249	12.95	3
0	20250	12.95	2
0	20293	13	2
0	20294	13	3
0	20295	13	4
0	20296	13	3
0	20297	13	2
0	20303	13	2
0	20304	13	3
0	20305	13	4
0	20306	13	3
0	20307	13	2
0	20358	13.05	2
0	20359	13.05	3
0	20360	13.05	4
0	20361	13.05	3
0	20362	13.05	2
0	20408	13.1	2
0	20409	13.1	3
0	20410	13.1	4
0	20411	13.1	3
0	20412	13.1	2
0	20418	13.1	2
0	20419	13.1	3
0	20420	13.1	4
0	20421	13.1	3
0	20422	13.1	2
0	20496	13.15	2
0	20497	13.15	3
0	20498	13.15	4
0	20499	13.15	3
0	20500	13.15	2
0	20541	13.2	2
0	20542	13.2	3
0	20543	13.2	4
0	20544	13.2	3
0	20545	13.2	2
0	20551	13.2	2
0	20552	13.2	3
0	20553	13.2	4
0	20554	13.2	3
0	20555	13.2	2
0	20792	13.25	2
0	20793	13.25	3
0	20794	13.25	4
0	20795	13.25	3
0	20796	13.25	2
0	20861	13.3	2
0	20862	13.3	3
0	20863	13.3	4
0	20864	13.3	3
0	20865	13.3	2
0	20871	13.3	2
0	20872	13.3	3
0	20873	13.3	4
0	20874	13.3	3
0	20875	13.3	2
0	20926	13.35	2
0	20927	13.35	3
0	20928	13.35	4
0	20929	13.35	3
0	20930	13.35	2
0	20994	13.4	2
0	20995	13.4	3
0	20996	13.4	4
0	20997	13.4	3
0	20998	13.4	2
0	21004	13.4	2
0	21005	13.4	3
0	21006	13.4	4
0	21007	13.4	3
0	21008	13.4	2
0	21059	13.45	2
0	21060	13.45	3
0	21061	13.45	4
0	21062	13.45	3
0	21063	13.45	2
0	21104	13.5	2
0	21105	13.5	3
0	21106	13.5	4
0	21107	13.5	3
0	21108	13.5	2
0	21114	13.5	2
0	21115	13.5	3
0	21116	13.5	4
0	21117	13.5	3
0	21118	13.5	2
0	21209	13.55	2
0	21210	13.55	3
0	21211	13.55	4
0	21212	13.55	3
0	21213	13.55	2
0	21254	13.6	2
0	21255	13.6	3
0	21256	13.6	4
0	21257	13.6	3
0	21258	13.6	2
0	21264	13.6	2
0	21265	13.6	3
0	21266	13.6	4
0	21267	13.6	3
0	21268	13.6	2
0	21319	13.65	2
0	21320	13.65	3
0	21321	13.65	4
0	21322	13.65	3
0	21323	13.65	2
0	21387	13.7	2
0	21388	13.7	3
0	21389	13.7	4
0	21390	13.7	3
0	21391	13.7	2
0	21397	13.7	2
0	21398	13.7	3
0	21399	13.7	4
0	21400	13.7	3
0	21401	13.7	2
0	21452	13.75	2
0	21453	13.75	3
0	21454	13.75	4
0	21455	13.75	3
0	21456	13.75	2
0	21681	13.8	2
0	21682	13.8	3
0	21683	13.8	4
0	21684	13.8	3
0	21685	13.8	2
0	21691	13.8	2
0	21692	13.8	3
0	21693	13.8	4
0	21694	13.8	3
0	21695	13.8	2
0	21746	13.85	2
0	21747	13.85	3
0	21748	13.85	4
0	21749	13.85	3
0	21750	13.85	2
0	21791	13.9	2
0	21792	13.9	3
0	21793	13.9	4
0	21794	13.9	3
0	21795	13.9	2
0	21801	13.9	2
0	21802	13.9	3
0	21803	13.9	4
0	21804	13.9	3
0	21805	13.9	2
0	21873	13.95	2
0	21874	13.95	3
0	21875	13.95	4
0	21876	13.95	3
0	21877	13.95	2
0	21922	14	2
0	21923	14	3
0	21924	14	4
0	21925	14	3
0	21926	14	2
0	21932	14	2
0	21933	14	3
0	21934	14	4
0	21935	14	3
0	21936	14	2
0	21987	14.05	2
0	21988	14.05	3
0	21989	14.05	4
0	21990	14.05	3
0	21991	14.05	2
0	22077	14.1	2
0	22078	14.1	3
0	22079	14.1	4
0	22080	14.1	3
0	22081	14.1	2
0	22087	14.1	2
0	22088	14.1	3
0	22089	14.1	4
0	22090	14.1	3
0	22091	14.1	2
0	22148	14.15	2
0	22149	14.15	3
0	22150	14.15	4
0	22151	14.15	3
0	22152	14.15	2
0	22193	14.2	2
0	22194	14.2	3
0	22195	14.2	4
0	22196	14.2	3
0	22197	14.2	2
0	22203	14.2	2
0	22204	14.2	3
0	22205	14.2	4
0	22206	14.2	3
0	22207	14.2	2
0	22281	14.25	2
0	22282	14.25	3
0	22283	14.25	4
0	22284	14.25	3
0	22285	14.25	2
0	22326	14.3	2
0	22327	14.3	3
0	22328	14.3	4
0	22329	14.3	3
0	22330	14.3	2
0	22336	14.3	2
0	22337	14.3	3
0	22338	14.3	4
0	22339	14.3	3
0	22340	14.3	2
0	22577	14.35	2
0	22578	14.35	3
0	22579	14.35	4
0	22580	14.35	3
0	22581	14.35	2
0	22641	14.4	2
0	22642	14.4	3
0	22643	14.4	4
0	22644	14.4	3
0	22645	14.4	2
0	22651	14.4	2
0	22652	14.4	3
0	22653	14.4	4
0	22654	14.4	3
0	22655	14.4	2
0	22706	14.45	2
0	22707	14.45	3
0	22708	14.45	4
0	22709	14.45	3
0	22710	14.45	2
0	22774	14.5	2
0	22775	14.5	3
0	22776	14.5	4
0	22777	14.5	3
0	22778	14.5	2
0	22784	14.5	2
0	22785	14.5	3
0	22786	14.5	4
0	22787	14.5	3
0	22788	14.5	2
0	22839	14.55	2
0	22840	14.55	3
0	22841	14.55	4
0	22842	14.55	3
0	22843	14.55	2
0	22884	14.6	2
0	22885	14.6	3
0	22886	14.6	4
0	22887	14.6	3
0	22888	14.6	2
0	22894	14.6	2
0	22895	14.6	3
0	22896	14.6	4
0	22897	14.6	3
0	22898	14.6	2
0	23027	14.65	2
0	23028	14.65	3
0	23029	14.65	4
0	23030	14.65	3
0	23031	14.65	2
0	23118	14.7	2
0	23119	14.7	3
0	23120	14.7	4
0	23121	14.7	3
0	23122	14.7	2
0	23128	14.7	2
0	23129	14.7	3
0	23130	14.7	4
0	23131	14.7	3
0	23132	14.7	2
0	23206	14.75	2
0	23207	14.75	3
0	23208	14.75	4
0	23209	14.75	3
0	23210	14.75	2
0	23274	14.8	2
0	23275	14.8	3
0	23276	14.8	4
0	23277	14.8	3
0	23278	14.8	2
0	23284	14.8	2
0	23285	14.8	3
0	23286	14.8	4
0	23287	14.8	3
0	23288	14.8	2
0	23339	14.85	2
0	23340	14.85	3
0	23341	14.85	4
0	23342	14.85	3
0	23343	14.85	2
0	23564	14.9	2
0	23565	14.9	3
0	23566	14.9	4
0	23567	14.9	3
0	23568	14.9	2
0	23574	14.9	2
0	23575	14.9	3
0	23576	14.9	4
0	23577	14.9	3
0	23578	14.9	2
0	23638	14.95	2
0	23639	14.95	3
0	23640	14.95	4
0	23641	14.95	3
0	23642	14.95	2
0	23685	15	2
0	23686	15	3
0	23687	15	4
0	23688	15	3
0	23689	15	2
0	23695	15	2
0	23696	15	3
0	23697	15	4
0	23698	15	3
0	23699	15	2
0	23767	15.05	2
0	23768	15.05	3
0	23769	15.05	4
0	23770	15.05	3
0	23771	15.05	2
0	23817	15.1	2
0	23818	15.1	3
0	23819	15.1	4
0	23820	15.1	3
0	23821	15.1	2
0	23827	15.1	2
0	23828	15.1	3
0	23829	15.1	4
0	23830	15.1	3
0	23831	15.1	2
0	23888	15.15	2
0	23889	15.15	3
0	23890	15.15	4
0	23891	15.15	3
0	23892	15.15	2
0	23984	15.2	2
0	23985	15.2	3
0	23986	15.2	4
0	23987	15.2	3
0	23988	15.2	2
0	23994	15.2	2
0	23995	15.2	3
0	23996	15.2	4
0	23997	15.2	3
0	23998	15.2	2
0	24049	15.25	2
0	24050	15.25	3
0	24051	15.25	4
0	24052	15.25	3
0	24053	15.25	2
0	24094	15.3	2
0	24095	15.3	3
0	24096	15.3	4
0	24097	15.3	3
0	24098	15.3	2
0	24104	15.3	2
0	24105	15.3	3
0	24106	15.3	4
0	24107	15.3	3
0	24108	15.3	2
0	24176	15.35	2
0	24177	15.35	3
0	24178	15.35	4
0	24179	15.35	3
0	24180	15.35	2
0	24221	15.4	2
0	24222	15.4	3
0	24223	15.4	4
0	24224	15.4	3
0	24225	15.4	2
0	24231	15.4	2
0	24232	15.4	3
0	24233	15.4	4
0	24234	15.4	3
0	24235	15.4	2
0	24472	15.45	2
0	24473	15.45	3
0	24474	15.45	4
0	24475	15.45	3
0	24476	15.45	2
0	24536	15.5	2
0	24537	15.5	3
0	24538	15.5	4
0	24539	15.5	3
0	24540	15.5	2
0	24546	15.5	2
0	24547	15.5	3
0	24548	15.5	4
0	24549	15.5	3
0	24550	15.5	2
0	24601	15.55	2
0	24602	15.55	3
0	24603	15.55	4
0	24604	15.55	3
0	24605	15.55	2
0	24669	15.6	2
0	24670	15.6	3
0	24671	15.6	4
0	24672	15.6	3
0	24673	15.6	2
0	24679	15.6	2
0	24680	15.6	3
0	24681	15.6	4
0	24682	15.6	3
0	24683	15.6	2
0	24734	15.65	2
0	24735	15.65	3
0	24736	15.65	4
0	24737	15.65	3
0	24738	15.65	2
0	24779	15.7	2
0	24780	15.7	3
0	24781	15.7	4
0	24782	15.7	3
0	24783	15.7	2
0	24789	15.7	2
0	24790	15.7	3
0	24791	15.7	4
0	24792	15.7	3
0	24793	15.7	2
0	24893	15.75	2
0	24894	15.75	3
0	24895	15.75	4
0	24896	15.75	3
0	24897	15.75	2
0	24938	15.8	2
0	24939	15.8	3
0	24940	15.8	4
0	24941	15.8	3
0	24942	15.8	2
0	24948	15.8	2
0	24949	15.8	3
0	24950	15.8	4
0	24951	15.8	3
0	24952	15.8	2
0	25003	15.85	2
0	25004	15.85	3
0	25005	15.85	4
0	25006	15.85	3
0	25007	15.85	2
0	25048	15.9	2
0	25049	15.9	3
0	25050	15.9	4
0	25051	15.9	3
0	25052	15.9	2
0	25058	15.9	2
0	25059	15.9	3
0	25060	15.9	4
0	25061	15.9	3
0	25062	15.9	2
0	25113	15.95	2
0	25114	15.95	3
0	25115	15.95	4
0	25116	15.95	3
0	25117	15.95	2
0	25346	16	2
0	25347	16	3
0	25348	16	4
0	25349	16	3
0	25350	16	2
0	25356	16	2
0	25357	16	3
0	25358	16	4
0	25359	16	3
0	25360	16	2
0	25411	16.05	2
0	25412	16.05	3
0	25413	16.05	4
0	25414	16.05	3
0	25415	16.05	2
0	25466	16.1	2
0	25467	16.1	3
0	25468	16.1	4
0	25469	16.1	3
0	25470	16.1	2
0	25476	16.1	2
0	25477	16.1	3
0	25478	16.1	4
0	25479	16.1	3
0	25480	16.1	2
0	25537	16.15	2
0	25538	16.15	3
0	25539	16.15	4
0	25540	16.15	3
0	25541	16.15	2
0	25582	16.2	2
0	25583	16.2	3
0	25584	16.2	4
0	25585	16.2	3
0	25586	16.2	2
0	25592	16.2	2
0	25593	16.2	3
0	25594	16.2	4
0	25595	16.2	3
0	25596	16.2	2
0	25647	16.25	2
0	25648	16.25	3
0	25649	16.25	4
0	25650	16.25	3
0	25651	16.25	2
0	25692	16.3	2
0	25693	16.3	3
0	25694	16.3	4
0	25695	16.3	3
0	25696	16.3	2
0	25702	16.3	2
0	25703	16.3	3
0	25704	16.3	4
0	25705	16.3	3
0	25706	16.3	2
0	25780	16.35	2
0	25781	16.35	3
0	25782	16.35	4
0	25783	16.35	3
0	25784	16.35	2
0	25825	16.4	2
0	25826	16.4	3
0	25827	16.4	4
0	25828	16.4	3
0	25829	16.4	2
0	25835	16.4	2
0	25836	16.4	3
0	25837	16.4	4
0	25838	16.4	3
0	25839	16.4	2
0	25890	16.45	2
0	25891	16.45	3
0	25892	16.45	4
0	25893	16.45	3
0	25894	16.45	2
0	25952	16.5	2
0	25953	16.5	3
0	25954	16.5	4
0	25955	16.5	3
0	25956	16.5	2
0	25962	16.5	2
0	25963	16.5	3
0	25964	16.5	4
0	25965	16.5	3
0	25966	16.5	2
0	26203	16.55	2
0	26204	16.55	3
0	26205	16.55	4
0	26206	16.55	3
0	26207	16.55	2
0	26267	16.6	2
0	26268	16.6	3
0	26269	16.6	4
0	26270	16.6	3
0	26271	16.6	2
0	26277	16.6	2
0	26278	16.6	3
0	26279	16.6	4
0	26280	16.6	3
0	26281	16.6	2
0	26332	16.65	2
0	26333	16.65	3
0	26334	16.65	4
0	26335	16.65	3
0	26336	16.65	2
0	26377	16.7	2
0	26378	16.7	3
0	26379	16.7	4
0	26380	16.7	3
0	26381	16.7	2
0	26387	16.7	2
0	26388	16.7	3
0	26389	16.7	4
0	26390	16.7	3
0	26391	16.7	2
0	26442	16.75	2
0	26443	16.75	3
0	26444	16.75	4
0	26445	16.75	3
0	26446	16.75	2
0	26487	16.8	2
0	26488	16.8	3
0	26489	16.8	4
0	26490	16.8	3
0	26491	16.8	2
0	26497	16.8	2
0	26498	16.8	3
0	26499	16.8	4
0	26500	16.8	3
0	26501	16.8	2
0	26552	16.85	2
0	26553	16.85	3
0	26554	16.85	4
0	26555	16.85	3
0	26556	16.85	2
0	26620	16.9	2
0	26621	16.9	3
0	26622	16.9	4
0	26623	16.9	3
0	26624	16.9	2
0	26630	16.9	2
0	26631	16.9	3
0	26632	16.9	4
0	26633	16.9	3
0	26634	16.9	2
0	26708	16.95	2
0	26709	16.95	3
0	26710	16.95	4
0	26711	16.95	3
0	26712	16.95	2
0	26756	17	2
0	26757	17	3
0	26758	17	4
0	26759	17	3
0	26760	17	2
0	26766	17	2
0	26767	17	3
0	26768	17	4
0	26769	17	3
0	26770	17	2
0	26844	17.05	2
0	26845	17.05	3
0	26846	17.05	4
0	26847	17.05	3
0	26848	17.05	2
0	27086	17.1	2
0	27087	17.1	3
0	27088	17.1	4
0	27089	17.1	3
0	27090	17.1	2
0	27096	17.1	2
0	27097	17.1	3
0	27098	17.1	4
0	27099	17.1	3
0	27100	17.1	2
0	27166	17.15	2
0	27167	17.15	3
0	27168	17.15	4
0	27169	17.15	3
0	27170	17.15	2
0	27211	17.2	2
0	27212	17.2	3
0	27213	17.2	4
0	27214	17.2	3
0	27215	17.2	2
0	27221	17.2	2
0	27222	17.2	3
0	27223	17.2	4
0	27224	17.2	3
0	27225	17.2	2
0	27276	17.25	2
0	27277	17.25	3
0	27278	17.25	4
0	27279	17.25	3
0	27280	17.25	2
0	27321	17.3	2
0	27322	17.3	3
0	27323	17.3	4
0	27324	17.3	3
0	27325	17.3	2
0	27331	17.3	2
0	27332	17.3	3
0	27333	17.3	4
0	27334	17.3	3
0	27335	17.3	2
0	27427	17.35	2
0	27428	17.35	3
0	27429	17.35	4
0	27430	17.35	3
0	27431	17.35	2
0	27480	17.4	2
0	27481	17.4	3
0	27482	17.4	4
0	27483	17.4	3
0	27484	17.4	2
0	27490	17.4	2
0	27491	17.4	3
0	27492	17.4	4
0	27493	17.4	3
0	27494	17.4	2
0	27562	17.45	2
0	27563	17.45	3
0	27564	17.45	4
0	27565	17.45	3
0	27566	17.45	2
0	27635	17.5	2
0	27636	17.5	3
0	27637	17.5	4
0	27638	17.5	3
0	27639	17.5	2
0	27645	17.5	2
0	27646	17.5	3
0	27647	17.5	4
0	27648	17.5	3
0	27649	17.5	2
0	27700	17.55	2
0	27701	17.55	3
0	27702	17.55	4
0	27703	17.55	3
0	27704	17.55	2
0	27762	17.6	2
0	27763	17.6	3
0	27764	17.6	4
0	27765	17.6	3
0	27766	17.6	2
0	27772	17.6	2
0	27773	17.6	3
0	27774	17.6	4
0	27775	17.6	3
0	27776	17.6	2
0	28009	17.65	2
0	28010	17.65	3
0	28011	17.65	4
0	28012	17.65	3
0	28013	17.65	2
0	28082	17.7	2
0	28083	17.7	3
0	28084	17.7	4
0	28085	17.7	3
0	28086	17.7	2
0	28092	17.7	2
0	28093	17.7	3
0	28094	17.7	4
0	28095	17.7	3
0	28096	17.7	2
0	28147	17.75	2
0	28148	17.75	3
0	28149	17.75	4
0	28150	17.75	3
0	28151	17.75	2
0	28192	17.8	2
0	28193	17.8	3
0	28194	17.8	4
0	28195	17.8	3
0	28196	17.8	2
0	28202	17.8	2
0	28203	17.8	3
0	28204	17.8	4
0	28205	17.8	3
0	28206	17.8	2
0	28257	17.85	2
0	28258	17.85	3
0	28259	17.85	4
0	28260	17.85	3
0	28261	17.85	2
0	28302	17.9	2
0	28303	17.9	3
0	28304	17.9	4
0	28305	17.9	3
0	28306	17.9	2
0	28312	17.9	2
0	28313	17.9	3
0	28314	17.9	4
0	28315	17.9	3
0	28316	17.9	2
0	28367	17.95	2
0	28368	17.95	3
0	28369	17.95	4
0	28370	17.95	3
0	28371	17.95	2
0	28439	18	2
0	28440	18	3
0	28441	18	4
0	28442	18	3
0	28443	18	2
0	28449	18	2
0	28450	18	3
0	28451	18	4
0	28452	18	3
0	28453	18	2
0	28504	18.05	2
0	28505	18.05	3
0	28506	18.05	4
0	28507	18.05	3
0	28508	18.05	2
0	28554	18.1	2
0	28555	18.1	3
0	28556	18.1	4
0	28557	18.1	3
0	28558	18.1	2
0	28564	18.1	2
0	28565	18.1	3
0	28566	18.1	4
0	28567	18.1	3
0	28568	18.1	2
0	28648	18.15	2
0	28649	18.15	3
0	28650	18.15	4
0	28651	18.15	3
0	28652	18.15	2
0	28879	18.2	2
0	28880	18.2	3
0	28881	18.2	4
0	28882	18.2	3
0	28883	18.2	2
0	28889	18.2	2
0	28890	18.2	3
0	28891	18.2	4
0	28892	18.2	3
0	28893	18.2	2
0	28963	18.25	2
0	28964	18.25	3
0	28965	18.25	4
0	28966	18.25	3
0	28967	18.25	2
0	29008	18.3	2
0	29009	18.3	3
0	29010	18.3	4
0	29011	18.3	3
0	29012	18.3	2
0	29018	18.3	2
0	29019	18.3	3
0	29020	18.3	4
0	29021	18.3	3
0	29022	18.3	2
0	29073	18.35	2
0	29074	18.35	3
0	29075	18.35	4
0	29076	18.35	3
0	29077	18.35	2
0	29118	18.4	2
0	29119	18.4	3
0	29120	18.4	4
0	29121	18.4	3
0	29122	18.4	2
0	29128	18.4	2
0	29129	18.4	3
0	29130	18.4	4
0	29131	18.4	3
0	29132	18.4	2
0	29183	18.45	2
0	29184	18.45	3
0	29185	18.45	4
0	29186	18.45	3
0	29187	18.45	2
0	29228	18.5	2
0	29229	18.5	3
0	29230	18.5	4
0	29231	18.5	3
0	29232	18.5	2
0	29238	18.5	2
0	29239	18.5	3
0	29240	18.5	4
0	29241	18.5	3
0	29242	18.5	2
0	29298	18.55	2
0	29299	18.55	3
0	29300	18.55	4
0	29301	18.55	3
0	29302	18.55	2
0	29343	18.6	2
0	29344	18.6	3
0	29345	18.6	4
0	29346	18.6	3
0	29347	18.6	2
0	29353	18.6	2
0	29354	18.6	3
0	29355	18.6	4
0	29356	18.6	3
0	29357	18.6	2
0	29408	18.65	2
0	29409	18.65	3
0	29410	18.65	4
0	29411	18.65	3
0	29412	18.65	2
0	29453	18.7	2
0	29454	18.7	3
0	29455	18.7	4
0	29456	18.7	3
0	29457	18.7	2
0	29463	18.7	2
0	29464	18.7	3
0	29465	18.7	4
0	29466	18.7	3
0	29467	18.7	2
0	29702	18.75	2
0	29703	18.75	3
0	29704	18.75	4
0	29705	18.75	3
0	29706	18.75	2
0	29747	18.8	2
0	29748	18.8	3
0	29749	18.8	4
0	29750	18.8	3
0	29751	18.8	2
0	29757	18.8	2
0	29758	18.8	3
0	29759	18.8	4
0	29760	18.8	3
0	29761	18.8	2
0	29812	18.85	2
0	29813	18.85	3
0	29814	18.85	4
0	29815	18.85	3
0	29816	18.85	2
0	29857	18.9	2
0	29858	18.9	3
0	29859	18.9	4
0	29860	18.9	3
0	29861	18.9	2
0	29867	18.9	2
0	29868	18.9	3
0	29869	18.9	4
0	29870	18.9	3
0	29871	18.9	2
0	29979	18.95	2
0	29980	18.95	3
0	29981	18.95	4
0	29982	18.95	3
0	29983	18.95	2
0	30030	19	2
0	30031	19	3
0	30032	19	4
0	30033	19	3
0	30034	19	2
0	30040	19	2
0	30041	19	3
0	30042	19	4
0	30043	19	3
0	30044	19	2
0	30095	19.05	2
0	30096	19.05	3
0	30097	19.05	4
0	30098	19.05	3
0	30099	19.05	2
0	30167	19.1	2
0	30168	19.1	3
0	30169	19.1	4
0	30170	19.1	3
0	30171	19.1	2
0	30177	19.1	2
0	30178	19.1	3
0	30179	19.1	4
0	30180	19.1	3
0	30181	19.1	2
0	30238	19.15	2
0	30239	19.15	3
0	30240	19.15	4
0	30241	19.15	3
0	30242	19.15	2
0	30283	19.2	2
0	30284	19.2	3
0	30285	19.2	4
0	30286	19.2	3
0	30287	19.2	2
0	30293	19.2	2
0	30294	19.2	3
0	30295	19.2	4
0	30296	19.2	3
0	30297	19.2	2
0	30371	19.25	2
0	30372	19.25	3
0	30373	19.25	4
0	30374	19.25	3
0	30375	19.25	2
0	30703	19.3	2
0	30704	19.3	3
0	30705	19.3	4
0	30706	19.3	3
0	30707	19.3	2
0	30713	19.3	2
0	30714	19.3	3
0	30715	19.3	4
0	30716	19.3	3
0	30717	19.3	2
0	30914	19.35	2
0	30915	19.35	3
0	30916	19.35	4
0	30917	19.35	3
0	30918	19.35	2
0	31107	19.4	2
0	31108	19.4	3
0	31109	19.4	4
0	31110	19.4	3
0	31111	19.4	2
0	31117	19.4	2
0	31118	19.4	3
0	31119	19.4	4
0	31120	19.4	3
0	31121	19.4	2
0	31283	19.45	2
0	31284	19.45	3
0	31285	19.45	4
0	31286	19.45	3
0	31287	19.45	2
0	31543	19.5	2
0	31544	19.5	3
0	31545	19.5	4
0	31546	19.5	3
0	31547	19.5	2
0	31553	19.5	2
0	31554	19.5	3
0	31555	19.5	4
0	31556	19.5	3
0	31557	19.5	2
0	31789	19.55	2
0	31790	19.55	3
0	31791	19.55	4
0	31792	19.55	3
0	31793	19.55	2
0	31939	19.6	2
0	31940	19.6	3
0	31941	19.6	4
0	31942	19.6	3
0	31943	19.6	2
0	31949	19.6	2
0	31950	19.6	3
0	31951	19.6	4
0	31952	19.6	3
0	31953	19.6	2
0	32054	19.65	2
0	32055	19.65	3
0	32056	19.65	4
0	32057	19.65	3
0	32058	19.65	2
0	32212	19.7	2
0	32213	19.7	3
0	32214	19.7	4
0	32215	19.7	3
0	32216	19.7	2
0	32222	19.7	2
0	32223	19.7	3
0	32224	19.7	4
0	32225	19.7	3
0	32226	19.7	2
0	32303	19.75	2
0	32304	19.75	3
0	32305	19.75	4
0	32306	19.75	3
0	32307	19.75	2
0	32348	19.8	2
0	32349	19.8	3
0	32350	19.8	4
0	32351	19.8	3
0	32352	19.8	2
0	32358	19.8	2
0	32359	19.8	3
0	32360	19.8	4
0	32361	19.8	3
0	32362	19.8	2
0	32597	19.85	2
0	32598	19.85	3
0	32599	19.85	4
0	32600	19.85	3
0	32601	19.85	2
0	32647	19.9	2
0	32648	19.9	3
0	32649	19.9	4
0	32650	19.9	3
0	32651	19.9	2
0	32657	19.9	2
0	32658	19.9	3
0	32659	19.9	4
0	32660	19.9	3
0	32661	19.9	2
0	32712	19.95	2
0	32713	19.95	3
0	32714	19.95	4
0	32715	19.95	3
0	32716	19.95	2
0	32761	20	2
0	32762	20	3
0	32763	20	4
0	32764	20	3
0	32765	20	2
0	32771	20	2
0	32772	20	3
0	32773	20	4
0	32774	20	3
0	32775	20	2
0	32843	20.05	2
0	32844	20.05	3
0	32845	20.05	4
0	32846	20.05	3
0	32847	20.05	2
0	32893	20.1	2
0	32894	20.1	3
0	32895	20.1	4
0	32896	20.1	3
0	32897	20.1	2
0	32903	20.1	2
0	32904	20.1	3
0	32905	20.1	4
0	32906	20.1	3
0	32907	20.1	2
0	32964	20.15	2
0	32965	20.15	3
0	32966	20.15	4
0	32967	20.15	3
0	32968	20.15	2
0	33032	20.2	2
0	33033	20.2	3
0	33034	20.2	4
0	33035	20.2	3
0	33036	20.2	2
0	33042	20.2	2
0	33043	20.2	3
0	33044	20.2	4
0	33045	20.2	3
0	33046	20.2	2
0	33097	20.25	2
0	33098	20.25	3
0	33099	20.25	4
0	33100	20.25	3
0	33101	20.25	2
0	33142	20.3	2
0	33143	20.3	3
0	33144	20.3	4
0	33145	20.3	3
0	33146	20.3	2
0	33152	20.3	2
0	33153	20.3	3
0	33154	20.3	4
0	33155	20.3	3
0	33156	20.3	2
0	33207	20.35	2
0	33208	20.35	3
0	33209	20.35	4
0	33210	20.35	3
0	33211	20.35	2
0	33463	20.4	2
0	33464	20.4	3
0	33465	20.4	4
0	33466	20.4	3
0	33467	20.4	2
0	33473	20.4	2
0	33474	20.4	3
0	33475	20.4	4
0	33476	20.4	3
0	33477	20.4	2
0	33563	20.45	2
0	33564	20.45	3
0	33565	20.45	4
0	33566	20.45	3
0	33567	20.45	2
0	33608	20.5	2
0	33609	20.5	3
0	33610	20.5	4
0	33611	20.5	3
0	33612	20.5	2
0	33618	20.5	2
0	33619	20.5	3
0	33620	20.5	4
0	33621	20.5	3
0	33622	20.5	2
0	33673	20.55	2
0	33674	20.55	3
0	33675	20.55	4
0	33676	20.55	3
0	33677	20.55	2
0	33795	20.6	2
0	33796	20.6	3
0	33797	20.6	4
0	33798	20.6	3
0	33799	20.6	2
0	33805	20.6	2
0	33806	20.6	3
0	33807	20.6	4
0	33808	20.6	3
0	33809	20.6	2
0	33920	20.65	2
0	33921	20.65	3
0	33922	20.65	4
0	33923	20.65	3
0	33924	20.65	2
0	34036	20.7	2
0	34037	20.7	3
0	34038	20.7	4
0	34039	20.7	3
0	34040	20.7	2
0	34046	20.7	2
0	34047	20.7	3
0	34048	20.7	4
0	34049	20.7	3
0	34050	20.7	2
0	34165	20.75	2
0	34166	20.75	3
0	34167	20.75	4
0	34168	20.75	3
0	34169	20.75	2
0	34210	20.8	2
0	34211	20.8	3
0	34212	20.8	4
0	34213	20.8	3
0	34214	20.8	2
0	34220	20.8	2
0	34221	20.8	3
0	34222	20.8	4
0	34223	20.8	3
0	34224	20.8	2
0	34292	20.85	2
0	34293	20.85	3
0	34294	20.85	4
0	34295	20.85	3
0	34296	20.85	2
0	34337	20.9	2
0	34338	20.9	3
0	34339	20.9	4
0	34340	20.9	3
0	34341	20.9	2
0	34347	20.9	2
0	34348	20.9	3
0	34349	20.9	4
0	34350	20.9	3
0	34351	20.9	2
0	34586	20.95	2
0	34587	20.95	3
0	34588	20.95	4
0	34589	20.95	3
0	34590	20.95	2
0	34637	21	2
0	34638	21	3
0	34639	21	4
0	34640	21	3
0	34641	21	2
0	34647	21	2
0	34648	21	3
0	34649	21	4
0	34650	21	3
0	34651	21	2
0	34702	21.05	2
0	34703	21.05	3
0	34704	21.05	4
0	34705	21.05	3
0	34706	21.05	2
0	34752	21.1	2
0	34753	21.1	3
0	34754	21.1	4
0	34755	21.1	3
0	34756	21.1	2
0	34762	21.1	2
0	34763	21.1	3
0	34764	21.1	4
0	34765	21.1	3
0	34766	21.1	2
0	34881	21.15	2
0	34882	21.15	3
0	34883	21.15	4
0	34884	21.15	3
0	34885	21.15	2
0	34986	21.2	2
0	34987	21.2	3
0	34988	21.2	4
0	34989	21.2	3
0	34990	21.2	2
0	34996	21.2	2
0	34997	21.2	3
0	34998	21.2	4
0	34999	21.2	3
0	35000	21.2	2
0	35051	21.25	2
0	35052	21.25	3
0	35053	21.25	4
0	35054	21.25	3
0	35055	21.25	2
0	35101	21.3	2
0	35102	21.3	3
0	35103	21.3	4
0	35104	21.3	3
0	35105	21.3	2
0	35111	21.3	2
0	35112	21.3	3
0	35113	21.3	4
0	35114	21.3	3
0	35115	21.3	2
0	35189	21.35	2
0	35190	21.35	3
0	35191	21.35	4
0	35192	21.35	3
0	35193	21.35	2
0	35234	21.4	2
0	35235	21.4	3
0	35236	21.4	4
0	35237	21.4	3
0	35238	21.4	2
0	35244	21.4	2
0	35245	21.4	3
0	35246	21.4	4
0	35247	21.4	3
0	35248	21.4	2
0	35299	21.45	2
0	35300	21.45	3
0	35301	21.45	4
0	35302	21.45	3
0	35303	21.45	2
0	35578	21.5	2
0	35579	21.5	3
0	35580	21.5	4
0	35581	21.5	3
0	35582	21.5	2
0	35588	21.5	2
0	35589	21.5	3
0	35590	21.5	4
0	35591	21.5	3
0	35592	21.5	2
0	35678	21.55	2
0	35679	21.55	3
0	35680	21.55	4
0	35681	21.55	3
0	35682	21.55	2
0	35723	21.6	2
0	35724	21.6	3
0	35725	21.6	4
0	35726	21.6	3
0	35727	21.6	2
0	35733	21.6	2
0	35734	21.6	3
0	35735	21.6	4
0	35736	21.6	3
0	35737	21.6	2
0	35788	21.65	2
0	35789	21.65	3
0	35790	21.65	4
0	35791	21.65	3
0	35792	21.65	2
0	35833	21.7	2
0	35834	21.7	3
0	35835	21.7	4
0	35836	21.7	3
0	35837	21.7	2
0	35843	21.7	2
0	35844	21.7	3
0	35845	21.7	4
0	35846	21.7	3
0	35847	21.7	2
0	35898	21.75	2
0	35899	21.75	3
0	35900	21.75	4
0	35901	21.75	3
0	35902	21.75	2
0	35943	21.8	2
0	35944	21.8	3
0	35945	21.8	4
0	35946	21.8	3
0	35947	21.8	2
0	35953	21.8	2
0	35954	21.8	3
0	35955	21.8	4
0	35956	21.8	3
0	35957	21.8	2
0	36008	21.85	2
0	36009	21.85	3
0	36010	21.85	4
0	36011	21.85	3
0	36012	21.85	2
0	36058	21.9	2
0	36059	21.9	3
0	36060	21.9	4
0	36061	21.9	3
0	36062	21.9	2
0	36068	21.9	2
0	36069	21.9	3
0	36070	21.9	4
0	36071	21.9	3
0	36072	21.9	2
0	36123	21.95	2
0	36124	21.95	3
0	36125	21.95	4
0	36126	21.95	3
0	36127	21.95	2
0	36170	22	2
0	36171	22	3
0	36172	22	4
0	36173	22	3
0	36174	22	2
0	36180	22	2
0	36181	22	3
0	36182	22	4
0	36183	22	3
0	36184	22	2
0	36419	22.05	2
0	36420	22.05	3
0	36421	22.05	4
0	36422	22.05	3
0	36423	22.05	2
0	36469	22.1	2
0	36470	22.1	3
0	36471	22.1	4
0	36472	22.1	3
0	36473	22.1	2
0	36479	22.1	2
0	36480	22.1	3
0	36481	22.1	4
0	36482	22.1	3
0	36483	22.1	2
0	36540	22.15	2
0	36541	22.15	3
0	36542	22.15	4
0	36543	22.15	3
0	36544	22.15	2
0	36585	22.2	2
0	36586	22.2	3
0	36587	22.2	4
0	36588	22.2	3
0	36589	22.2	2
0	36595	22.2	2
0	36596	22.2	3
0	36597	22.2	4
0	36598	22.2	3
0	36599	22.2	2
0	36650	22.25	2
0	36651	22.25	3
0	36652	22.25	4
0	36653	22.25	3
0	36654	22.25	2
0	36695	22.3	2
0	36696	22.3	3
0	36697	22.3	4
0	36698	22.3	3
0	36699	22.3	2
0	36705	22.3	2
0	36706	22.3	3
0	36707	22.3	4
0	36708	22.3	3
0	36709	22.3	2
0	36760	22.35	2
0	36761	22.35	3
0	36762	22.35	4
0	36763	22.35	3
0	36764	22.35	2
0	36805	22.4	2
0	36806	22.4	3
0	36807	22.4	4
0	36808	22.4	3
0	36809	22.4	2
0	36815	22.4	2
0	36816	22.4	3
0	36817	22.4	4
0	36818	22.4	3
0	36819	22.4	2
0	36893	22.45	2
0	36894	22.45	3
0	36895	22.45	4
0	36896	22.45	3
0	36897	22.45	2
0	36938	22.5	2
0	36939	22.5	3
0	36940	22.5	4
0	36941	22.5	3
0	36942	22.5	2
0	36948	22.5	2
0	36949	22.5	3
0	36950	22.5	4
0	36951	22.5	3
0	36952	22.5	2
0	37003	22.55	2
0	37004	22.55	3
0	37005	22.55	4
0	37006	22.55	3
0	37007	22.55	2
0	37272	22.6	2
0	37273	22.6	3
0	37274	22.6	4
0	37275	22.6	3
0	37276	22.6	2
0	37282	22.6	2
0	37283	22.6	3
0	37284	22.6	4
0	37285	22.6	3
0	37286	22.6	2
0	37382	22.65	2
0	37383	22.65	3
0	37384	22.65	4
0	37385	22.65	3
0	37386	22.65	2
0	37427	22.7	2
0	37428	22.7	3
0	37429	22.7	4
0	37430	22.7	3
0	37431	22.7	2
0	37437	22.7	2
0	37438	22.7	3
0	37439	22.7	4
0	37440	22.7	3
0	37441	22.7	2
0	37555	22.75	2
0	37556	22.75	3
0	37557	22.75	4
0	37558	22.75	3
0	37559	22.75	2
0	37655	22.8	2
0	37656	22.8	3
0	37657	22.8	4
0	37658	22.8	3
0	37659	22.8	2
0	37665	22.8	2
0	37666	22.8	3
0	37667	22.8	4
0	37668	22.8	3
0	37669	22.8	2
0	37720	22.85	2
0	37721	22.85	3
0	37722	22.85	4
0	37723	22.85	3
0	37724	22.85	2
0	37788	22.9	2
0	37789	22.9	3
0	37790	22.9	4
0	37791	22.9	3
0	37792	22.9	2
0	37798	22.9	2
0	37799	22.9	3
0	37800	22.9	4
0	37801	22.9	3
0	37802	22.9	2
0	37853	22.95	2
0	37854	22.95	3
0	37855	22.95	4
0	37856	22.95	3
0	37857	22.95	2
0	37922	23	2
0	37923	23	3
0	37924	23	4
0	37925	23	3
0	37926	23	2
0	37932	23	2
0	37933	23	3
0	37934	23	4
0	37935	23	3
0	37936	23	2
0	37987	23.05	2
0	37988	23.05	3
0	37989	23.05	4
0	37990	23.05	3
0	37991	23.05	2
0	38042	23.1	2
0	38043	23.1	3
0	38044	23.1	4
0	38045	23.1	3
0	38046	23.1	2
0	38052	23.1	2
0	38053	23.1	3
0	38054	23.1	4
0	38055	23.1	3
0	38056	23.1	2
0	38331	23.15	2
0	38332	23.15	3
0	38333	23.15	4
0	38334	23.15	3
0	38335	23.15	2
0	38421	23.2	2
0	38422	23.2	3
0	38423	23.2	4
0	38424	23.2	3
0	38425	23.2	2
0	38431	23.2	2
0	38432	23.2	3
0	38433	23.2	4
0	38434	23.2	3
0	38435	23.2	2
0	38486	23.25	2
0	38487	23.25	3
0	38488	23.25	4
0	38489	23.25	3
0	38490	23.25	2
0	38587	23.3	2
0	38588	23.3	3
0	38589	23.3	4
0	38590	23.3	3
0	38591	23.3	2
0	38597	23.3	2
0	38598	23.3	3
0	38599	23.3	4
0	38600	23.3	3
0	38601	23.3	2
0	38698	23.35	2
0	38699	23.35	3
0	38700	23.35	4
0	38701	23.35	3
0	38702	23.35	2
0	38743	23.4	2
0	38744	23.4	3
0	38745	23.4	4
0	38746	23.4	3
0	38747	23.4	2
0	38753	23.4	2
0	38754	23.4	3
0	38755	23.4	4
0	38756	23.4	3
0	38757	23.4	2
0	38831	23.45	2
0	38832	23.45	3
0	38833	23.45	4
0	38834	23.45	3
0	38835	23.45	2
0	38899	23.5	2
0	38900	23.5	3
0	38901	23.5	4
0	38902	23.5	3
0	38903	23.5	2
0	38909	23.5	2
0	38910	23.5	3
0	38911	23.5	4
0	38912	23.5	3
0	38913	23.5	2
0	38987	23.55	2
0	38988	23.55	3
0	38989	23.55	4
0	38990	23.55	3
0	38991	23.55	2
0	39032	23.6	2
0	39033	23.6	3
0	39034	23.6	4
0	39035	23.6	3
0	39036	23.6	2
0	39042	23.6	2
0	39043	23.6	3
0	39044	23.6	4
0	39045	23.6	3
0	39046	23.6	2
0	39114	23.65	2
0	39115	23.65	3
0	39116	23.65	4
0	39117	23.65	3
0	39118	23.65	2
0	39348	23.7	2
0	39349	23.7	3
0	39350	23.7	4
0	39351	23.7	3
0	39352	23.7	2
0	39358	23.7	2
0	39359	23.7	3
0	39360	23.7	4
0	39361	23.7	3
0	39362	23.7	2
0	39413	23.75	2
0	39414	23.75	3
0	39415	23.75	4
0	39416	23.75	3
0	39417	23.75	2
0	39458	23.8	2
0	39459	23.8	3
0	39460	23.8	4
0	39461	23.8	3
0	39462	23.8	2
0	39468	23.8	2
0	39469	23.8	3
0	39470	23.8	4
0	39471	23.8	3
0	39472	23.8	2
0	39540	23.85	2
0	39541	23.85	3
0	39542	23.85	4
0	39543	23.85	3
0	39544	23.85	2
0	39585	23.9	2
0	39586	23.9	3
0	39587	23.9	4
0	39588	23.9	3
0	39589	23.9	2
0	39595	23.9	2
0	39596	23.9	3
0	39597	23.9	4
0	39598	23.9	3
0	39599	23.9	2
0	39650	23.95	2
0	39651	23.95	3
0	39652	23.95	4
0	39653	23.95	3
0	39654	23.95	2
0	39720	24	2
0	39721	24	3
0	39722	24	4
0	39723	24	3
0	39724	24	2
0	39730	24	2
0	39731	24	3
0	39732	24	4
0	39733	24	3
0	39734	24	2
0	39808	24.05	2
0	39809	24.05	3
0	39810	24.05	4
0	39811	24.05	3
0	39812	24.05	2
0	39858	24.1	2
0	39859	24.1	3
0	39860	24.1	4
0	39861	24.1	3
0	39862	24.1	2
0	39868	24.1	2
0	39869	24.1	3
0	39870	24.1	4
0	39871	24.1	3
0	39872	24.1	2
0	39929	24.15	2
0	39930	24.15	3
0	39931	24.15	4
0	39932	24.15	3
0	39933	24.15	2
0	39997	24.2	2
0	39998	24.2	3
0	39999	24.2	4
0	40000	24.2	3
0	40001	24.2	2
0	40007	24.2	2
0	40008	24.2	3
0	40009	24.2	4
0	40010	24.2	3
0	40011	24.2	2
0	40273	24.25	2
0	40274	24.25	3
0	40275	24.25	4
0	40276	24.25	3
0	40277	24.25	2
0	40353	24.3	2
0	40354	24.3	3
0	40355	24.3	4
0	40356	24.3	3
0	40357	24.3	2
0	40363	24.3	2
0	40364	24.3	3
0	40365	24.3	4
0	40366	24.3	3
0	40367	24.3	2
0	40418	24.35	2
0	40419	24.35	3
0	40420	24.35	4
0	40421	24.35	3
0	40422	24.35	2
0	40480	24.4	2
0	40481	24.4	3
0	40482	24.4	4
0	40483	24.4	3
0	40484	24.4	2
0	40490	24.4	2
0	40491	24.4	3
0	40492	24.4	4
0	40493	24.4	3
0	40494	24.4	2
0	40545	24.45	2
0	40546	24.45	3
0	40547	24.45	4
0	40548	24.45	3
0	40549	24.45	2
0	40590	24.5	2
0	40591	24.5	3
0	40592	24.5	4
0	40593	24.5	3
0	40594	24.5	2
0	40600	24.5	2
0	40601	24.5	3
0	40602	24.5	4
0	40603	24.5	3
0	40604	24.5	2
0	40672	24.55	2
0	40673	24.55	3
0	40674	24.55	4
0	40675	24.55	3
0	40676	24.55	2
0	40722	24.6	2
0	40723	24.6	3
0	40724	24.6	4
0	40725	24.6	3
0	40726	24.6	2
0	40732	24.6	2
0	40733	24.6	3
0	40734	24.6	4
0	40735	24.6	3
0	40736	24.6	2
0	40787	24.65	2
0	40788	24.65	3
0	40789	24.65	4
0	40790	24.65	3
0	40791	24.65	2
0	40832	24.7	2
0	40833	24.7	3
0	40834	24.7	4
0	40835	24.7	3
0	40836	24.7	2
0	40842	24.7	2
0	40843	24.7	3
0	40844	24.7	4
0	40845	24.7	3
0	40846	24.7	2
0	40897	24.75	2
0	40898	24.75	3
0	40899	24.75	4
0	40900	24.75	3
0	40901	24.75	2
0	41126	24.8	2
0	41127	24.8	3
0	41128	24.8	4
0	41129	24.8	3
0	41130	24.8	2
0	41136	24.8	2
0	41137	24.8	3
0	41138	24.8	4
0	41139	24.8	3
0	41140	24.8	2
0	41191	24.85	2
0	41192	24.85	3
0	41193	24.85	4
0	41194	24.85	3
0	41195	24.85	2
0	41236	24.9	2
0	41237	24.9	3
0	41238	24.9	4
0	41239	24.9	3
0	41240	24.9	2
0	41246	24.9	2
0	41247	24.9	3
0	41248	24.9	4
0	41249	24.9	3
0	41250	24.9	2
0	41306	24.95	2
0	41307	24.95	3
0	41308	24.95	4
0	41309	24.95	3
0	41310	24.95	2
0	41354	25	2
0	41355	25	3
0	41356	25	4
0	41357	25	3
0	41358	25	2
0	41364	25	2
0	41365	25	3
0	41366	25	4
0	41367	25	3
0	41368	25	2
0	41419	25.05	2
0	41420	25.05	3
0	41421	25.05	4
0	41422	25.05	3
0	41423	25.05	2
0	41469	25.1	2
0	41470	25.1	3
0	41471	25.1	4
0	41472	25.1	3
0	41473	25.1	2
0	41479	25.1	2
0	41480	25.1	3
0	41481	25.1	4
0	41482	25.1	3
0	41483	25.1	2
0	41563	25.15	2
0	41564	25.15	3
0	41565	25.15	4
0	41566	25.15	3
0	41567	25.15	2
0	41608	25.2	2
0	41609	25.2	3
0	41610	25.2	4
0	41611	25.2	3
0	41612	25.2	2
0	41618	25.2	2
0	41619	25.2	3
0	41620	25.2	4
0	41621	25.2	3
0	41622	25.2	2
0	41673	25.25	2
0	41674	25.25	3
0	41675	25.25	4
0	41676	25.25	3
0	41677	25.25	2
0	41741	25.3	2
0	41742	25.3	3
0	41743	25.3	4
0	41744	25.3	3
0	41745	25.3	2
0	41751	25.3	2
0	41752	25.3	3
0	41753	25.3	4
0	41754	25.3	3
0	41755	25.3	2
0	42017	25.35	2
0	42018	25.35	3
0	42019	25.35	4
0	42020	25.35	3
0	42021	25.35	2
0	42097	25.4	2
0	42098	25.4	3
0	42099	25.4	4
0	42100	25.4	3
0	42101	25.4	2
0	42107	25.4	2
0	42108	25.4	3
0	42109	25.4	4
0	42110	25.4	3
0	42111	25.4	2
0	42162	25.45	2
0	42163	25.45	3
0	42164	25.45	4
0	42165	25.45	3
0	42166	25.45	2
0	42207	25.5	2
0	42208	25.5	3
0	42209	25.5	4
0	42210	25.5	3
0	42211	25.5	2
0	42217	25.5	2
0	42218	25.5	3
0	42219	25.5	4
0	42220	25.5	3
0	42221	25.5	2
0	42272	25.55	2
0	42273	25.55	3
0	42274	25.55	4
0	42275	25.55	3
0	42276	25.55	2
0	42317	25.6	2
0	42318	25.6	3
0	42319	25.6	4
0	42320	25.6	3
0	42321	25.6	2
0	42327	25.6	2
0	42328	25.6	3
0	42329	25.6	4
0	42330	25.6	3
0	42331	25.6	2
0	42382	25.65	2
0	42383	25.65	3
0	42384	25.65	4
0	42385	25.65	3
0	42386	25.65	2
0	42450	25.7	2
0	42451	25.7	3
0	42452	25.7	4
0	42453	25.7	3
0	42454	25.7	2
0	42460	25.7	2
0	42461	25.7	3
0	42462	25.7	4
0	42463	25.7	3
0	42464	25.7	2
0	42515	25.75	2
0	42516	25.75	3
0	42517	25.75	4
0	42518	25.75	3
0	42519	25.75	2
0	42565	25.8	2
0	42566	25.8	3
0	42567	25.8	4
0	42568	25.8	3
0	42569	25.8	2
0	42575	25.8	2
0	42576	25.8	3
0	42577	25.8	4
0	42578	25.8	3
0	42579	25.8	2
0	42635	25.85	2
0	42636	25.85	3
0	42637	25.85	4
0	42638	25.85	3
0	42639	25.85	2
0	42864	25.9	2
0	42865	25.9	3
0	42866	25.9	4
0	42867	25.9	3
0	42868	25.9	2
0	42874	25.9	2
0	42875	25.9	3
0	42876	25.9	4
0	42877	25.9	3
0	42878	25.9	2
0	42929	25.95	2
0	42930	25.95	3
0	42931	25.95	4
0	42932	25.95	3
0	42933	25.95	2
0	42976	26	2
0	42977	26	3
0	42978	26	4
0	42979	26	3
0	42980	26	2
0	42986	26	2
0	42987	26	3
0	42988	26	4
0	42989	26	3
0	42990	26	2
0	43041	26.05	2
0	43042	26.05	3
0	43043	26.05	4
0	43044	26.05	3
0	43045	26.05	2
0	43091	26.1	2
0	43092	26.1	3
0	43093	26.1	4
0	43094	26.1	3
0	43095	26.1	2
0	43101	26.1	2
0	43102	26.1	3
0	43103	26.1	4
0	43104	26.1	3
0	43105	26.1	2
0	43179	26.15	2
0	43180	26.15	3
0	43181	26.15	4
0	43182	26.15	3
0	43183	26.15	2
0	43247	26.2	2
0	43248	26.2	3
0	43249	26.2	4
0	43250	26.2	3
0	43251	26.2	2
0	43257	26.2	2
0	43258	26.2	3
0	43259	26.2	4
0	43260	26.2	3
0	43261	26.2	2
0	43312	26.25	2
0	43313	26.25	3
0	43314	26.25	4
0	43315	26.25	3
0	43316	26.25	2
0	43362	26.3	2
0	43363	26.3	3
0	43364	26.3	4
0	43365	26.3	3
0	43366	26.3	2
0	43372	26.3	2
0	43373	26.3	3
0	43374	26.3	4
0	43375	26.3	3
0	43376	26.3	2
0	43432	26.35	2
0	43433	26.35	3
0	43434	26.35	4
0	43435	26.35	3
0	43436	26.35	2
0	43477	26.4	2
0	43478	26.4	3
0	43479	26.4	4
0	43480	26.4	3
0	43481	26.4	2
0	43487	26.4	2
0	43488	26.4	3
0	43489	26.4	4
0	43490	26.4	3
0	43491	26.4	2
0	43753	26.45	2
0	43754	26.45	3
0	43755	26.45	4
0	43756	26.45	3
0	43757	26.45	2
0	43833	26.5	2
0	43834	26.5	3
0	43835	26.5	4
0	43836	26.5	3
0	43837	26.5	2
0	43843	26.5	2
0	43844	26.5	3
0	43845	26.5	4
0	43846	26.5	3
0	43847	26.5	2
0	43898	26.55	2
0	43899	26.55	3
0	43900	26.55	4
0	43901	26.55	3
0	43902	26.55	2
0	43943	26.6	2
0	43944	26.6	3
0	43945	26.6	4
0	43946	26.6	3
0	43947	26.6	2
0	43953	26.6	2
0	43954	26.6	3
0	43955	26.6	4
0	43956	26.6	3
0	43957	26.6	2
0	44008	26.65	2
0	44009	26.65	3
0	44010	26.65	4
0	44011	26.65	3
0	44012	26.65	2
0	44053	26.7	2
0	44054	26.7	3
0	44055	26.7	4
0	44056	26.7	3
0	44057	26.7	2
0	44063	26.7	2
0	44064	26.7	3
0	44065	26.7	4
0	44066	26.7	3
0	44067	26.7	2
0	44118	26.75	2
0	44119	26.75	3
0	44120	26.75	4
0	44121	26.75	3
0	44122	26.75	2
0	44163	26.8	2
0	44164	26.8	3
0	44165	26.8	4
0	44166	26.8	3
0	44167	26.8	2
0	44173	26.8	2
0	44174	26.8	3
0	44175	26.8	4
0	44176	26.8	3
0	44177	26.8	2
0	44228	26.85	2
0	44229	26.85	3
0	44230	26.85	4
0	44231	26.85	3
0	44232	26.85	2
0	44273	26.9	2
0	44274	26.9	3
0	44275	26.9	4
0	44276	26.9	3
0	44277	26.9	2
0	44283	26.9	2
0	44284	26.9	3
0	44285	26.9	4
0	44286	26.9	3
0	44287	26.9	2
0	44338	26.95	2
0	44339	26.95	3
0	44340	26.95	4
0	44341	26.95	3
0	44342	26.95	2
0	44568	27	2
0	44569	27	3
0	44570	27	4
0	44571	27	3
0	44572	27	2
0	44578	27	2
0	44579	27	3
0	44580	27	4
0	44581	27	3
0	44582	27	2
0	44633	27.05	2
0	44634	27.05	3
0	44635	27.05	4
0	44636	27.05	3
0	44637	27.05	2
0	44683	27.1	2
0	44684	27.1	3
0	44685	27.1	4
0	44686	27.1	3
0	44687	27.1	2
0	44693	27.1	2
0	44694	27.1	3
0	44695	27.1	4
0	44696	27.1	3
0	44697	27.1	2
0	44754	27.15	2
0	44755	27.15	3
0	44756	27.15	4
0	44757	27.15	3
0	44758	27.15	2
0	44799	27.2	2
0	44800	27.2	3
0	44801	27.2	4
0	44802	27.2	3
0	44803	27.2	2
0	44809	27.2	2
0	44810	27.2	3
0	44811	27.2	4
0	44812	27.2	3
0	44813	27.2	2
0	44864	27.25	2
0	44865	27.25	3
0	44866	27.25	4
0	44867	27.25	3
0	44868	27.25	2
0	44914	27.3	2
0	44915	27.3	3
0	44916	27.3	4
0	44917	27.3	3
0	44918	27.3	2
0	44924	27.3	2
0	44925	27.3	3
0	44926	27.3	4
0	44927	27.3	3
0	44928	27.3	2
0	44979	27.35	2
0	44980	27.35	3
0	44981	27.35	4
0	44982	27.35	3
0	44983	27.35	2
0	45024	27.4	2
0	45025	27.4	3
0	45026	27.4	4
0	45027	27.4	3
0	45028	27.4	2
0	45034	27.4	2
0	45035	27.4	3
0	45036	27.4	4
0	45037	27.4	3
0	45038	27.4	2
0	45094	27.45	2
0	45095	27.45	3
0	45096	27.45	4
0	45097	27.45	3
0	45098	27.45	2
0	45139	27.5	2
0	45140	27.5	3
0	45141	27.5	4
0	45142	27.5	3
0	45143	27.5	2
0	45149	27.5	2
0	45150	27.5	3
0	45151	27.5	4
0	45152	27.5	3
0	45153	27.5	2
0	45415	27.55	2
0	45416	27.55	3
0	45417	27.55	4
0	45418	27.55	3
0	45419	27.55	2
0	45495	27.6	2
0	45496	27.6	3
0	45497	27.6	4
0	45498	27.6	3
0	45499	27.6	2
0	45505	27.6	2
0	45506	27.6	3
0	45507	27.6	4
0	45508	27.6	3
0	45509	27.6	2
0	45560	27.65	2
0	45561	27.65	3
0	45562	27.65	4
0	45563	27.65	3
0	45564	27.65	2
0	45605	27.7	2
0	45606	27.7	3
0	45607	27.7	4
0	45608	27.7	3
0	45609	27.7	2
0	45615	27.7	2
0	45616	27.7	3
0	45617	27.7	4
0	45618	27.7	3
0	45619	27.7	2
0	45687	27.75	2
0	45688	27.75	3
0	45689	27.75	4
0	45690	27.75	3
0	45691	27.75	2
0	45737	27.8	2
0	45738	27.8	3
0	45739	27.8	4
0	45740	27.8	3
0	45741	27.8	2
0	45747	27.8	2
0	45748	27.8	3
0	45749	27.8	4
0	45750	27.8	3
0	45751	27.8	2
0	45802	27.85	2
0	45803	27.85	3
0	45804	27.85	4
0	45805	27.85	3
0	45806	27.85	2
0	45902	27.9	2
0	45903	27.9	3
0	45904	27.9	4
0	45905	27.9	3
0	45906	27.9	2
0	45912	27.9	2
0	45913	27.9	3
0	45914	27.9	4
0	45915	27.9	3
0	45916	27.9	2
0	46034	27.95	2
0	46035	27.95	3
0	46036	27.95	4
0	46037	27.95	3
0	46038	27.95	2
0	46136	28	2
0	46137	28	3
0	46138	28	4
0	46139	28	3
0	46140	28	2
0	46146	28	2
0	46147	28	3
0	46148	28	4
0	46149	28	3
0	46150	28	2
0	46201	28.05	2
0	46202	28.05	3
0	46203	28.05	4
0	46204	28.05	3
0	46205	28.05	2
0	46435	28.1	2
0	46436	28.1	3
0	46437	28.1	4
0	46438	28.1	3
0	46439	28.1	2
0	46445	28.1	2
0	46446	28.1	3
0	46447	28.1	4
0	46448	28.1	3
0	46449	28.1	2
0	46506	28.15	2
0	46507	28.15	3
0	46508	28.15	4
0	46509	28.15	3
0	46510	28.15	2
0	46551	28.2	2
0	46552	28.2	3
0	46553	28.2	4
0	46554	28.2	3
0	46555	28.2	2
0	46561	28.2	2
0	46562	28.2	3
0	46563	28.2	4
0	46564	28.2	3
0	46565	28.2	2
0	46616	28.25	2
0	46617	28.25	3
0	46618	28.25	4
0	46619	28.25	3
0	46620	28.25	2
0	46684	28.3	2
0	46685	28.3	3
0	46686	28.3	4
0	46687	28.3	3
0	46688	28.3	2
0	46694	28.3	2
0	46695	28.3	3
0	46696	28.3	4
0	46697	28.3	3
0	46698	28.3	2
0	46766	28.35	2
0	46767	28.35	3
0	46768	28.35	4
0	46769	28.35	3
0	46770	28.35	2
0	46811	28.4	2
0	46812	28.4	3
0	46813	28.4	4
0	46814	28.4	3
0	46815	28.4	2
0	46821	28.4	2
0	46822	28.4	3
0	46823	28.4	4
0	46824	28.4	3
0	46825	28.4	2
0	46925	28.45	2
0	46926	28.45	3
0	46927	28.45	4
0	46928	28.45	3
0	46929	28.45	2
0	47053	28.5	2
0	47054	28.5	3
0	47055	28.5	4
0	47056	28.5	3
0	47057	28.5	2
0	47063	28.5	2
0	47064	28.5	3
0	47065	28.5	4
0	47066	28.5	3
0	47067	28.5	2
0	47137	28.55	2
0	47138	28.55	3
0	47139	28.55	4
0	47140	28.55	3
0	47141	28.55	2
0	47182	28.6	2
0	47183	28.6	3
0	47184	28.6	4
0	47185	28.6	3
0	47186	28.6	2
0	47192	28.6	2
0	47193	28.6	3
0	47194	28.6	4
0	47195	28.6	3
0	47196	28.6	2
0	47458	28.65	2
0	47459	28.65	3
0	47460	28.65	4
0	47461	28.65	3
0	47462	28.65	2
0	47538	28.7	2
0	47539	28.7	3
0	47540	28.7	4
0	47541	28.7	3
0	47542	28.7	2
0	47548	28.7	2
0	47549	28.7	3
0	47550	28.7	4
0	47551	28.7	3
0	47552	28.7	2
0	47603	28.75	2
0	47604	28.75	3
0	47605	28.75	4
0	47606	28.75	3
0	47607	28.75	2
0	47648	28.8	2
0	47649	28.8	3
0	47650	28.8	4
0	47651	28.8	3
0	47652	28.8	2
0	47658	28.8	2
0	47659	28.8	3
0	47660	28.8	4
0	47661	28.8	3
0	47662	28.8	2
0	47718	28.85	2
0	47719	28.85	3
0	47720	28.85	4
0	47721	28.85	3
0	47722	28.85	2
0	47785	28.9	2
0	47786	28.9	3
0	47787	28.9	4
0	47788	28.9	3
0	47789	28.9	2
0	47795	28.9	2
0	47796	28.9	3
0	47797	28.9	4
0	47798	28.9	3
0	47799	28.9	2
0	47850	28.95	2
0	47851	28.95	3
0	47852	28.95	4
0	47853	28.95	3
0	47854	28.95	2
0	47896	29	2
0	47897	29	3
0	47898	29	4
0	47899	29	3
0	47900	29	2
0	47906	29	2
0	47907	29	3
0	47908	29	4
0	47909	29	3
0	47910	29	2
0	47984	29.05	2
0	47985	29.05	3
0	47986	29.05	4
0	47987	29.05	3
0	47988	29.05	2
0	48034	29.1	2
0	48035	29.1	3
0	48036	29.1	4
0	48037	29.1	3
0	48038	29.1	2
0	48044	29.1	2
0	48045	29.1	3
0	48046	29.1	4
0	48047	29.1	3
0	48048	29.1	2
0	48105	29.15	2
0	48106	29.15	3
0	48107	29.15	4
0	48108	29.15	3
0	48109	29.15	2
0	48361	29.2	2
0	48362	29.2	3
0	48363	29.2	4
0	48364	29.2	3
0	48365	29.2	2
0	48371	29.2	2
0	48372	29.2	3
0	48373	29.2	4
0	48374	29.2	3
0	48375	29.2	2
0	48461	29.25	2
0	48462	29.25	3
0	48463	29.25	4
0	48464	29.25	3
0	48465	29.25	2
0	48506	29.3	2
0	48507	29.3	3
0	48508	29.3	4
0	48509	29.3	3
0	48510	29.3	2
0	48516	29.3	2
0	48517	29.3	3
0	48518	29.3	4
0	48519	29.3	3
0	48520	29.3	2
0	48571	29.35	2
0	48572	29.35	3
0	48573	29.35	4
0	48574	29.35	3
0	48575	29.35	2
0	48616	29.4	2
0	48617	29.4	3
0	48618	29.4	4
0	48619	29.4	3
0	48620	29.4	2
0	48626	29.4	2
0	48627	29.4	3
0	48628	29.4	4
0	48629	29.4	3
0	48630	29.4	2
0	48704	29.45	2
0	48705	29.45	3
0	48706	29.45	4
0	48707	29.45	3
0	48708	29.45	2
0	48749	29.5	2
0	48750	29.5	3
0	48751	29.5	4
0	48752	29.5	3
0	48753	29.5	2
0	48759	29.5	2
0	48760	29.5	3
0	48761	29.5	4
0	48762	29.5	3
0	48763	29.5	2
0	48814	29.55	2
0	48815	29.55	3
0	48816	29.55	4
0	48817	29.55	3
0	48818	29.55	2
0	48864	29.6	2
0	48865	29.6	3
0	48866	29.6	4
0	48867	29.6	3
0	48868	29.6	2
0	48874	29.6	2
0	48875	29.6	3
0	48876	29.6	4
0	48877	29.6	3
0	48878	29.6	2
0	48929	29.65	2
0	48930	29.65	3
0	48931	29.65	4
0	48932	29.65	3
0	48933	29.65	2
0	48974	29.7	2
0	48975	29.7	3
0	48976	29.7	4
0	48977	29.7	3
0	48978	29.7	2
0	48984	29.7	2
0	48985	29.7	3
0	48986	29.7	4
0	48987	29.7	3
0	48988	29.7	2
0	49223	29.75	2
0	49224	29.75	3
0	49225	29.75	4
0	49226	29.75	3
0	49227	29.75	2
0	49268	29.8	2
0	49269	29.8	3
0	49270	29.8	4
0	49271	29.8	3
0	49272	29.8	2
0	49278	29.8	2
0	49279	29.8	3
0	49280	29.8	4
0	49281	29.8	3
0	49282	29.8	2
0	49333	29.85	2
0	49334	29.85	3
0	49335	29.85	4
0	49336	29.85	3
0	49337	29.85	2
0	49378	29.9	2
0	49379	29.9	3
0	49380	29.9	4
0	49381	29.9	3
0	49382	29.9	2
0	49388	29.9	2
0	49389	29.9	3
0	49390	29.9	4
0	49391	29.9	3
0	49392	29.9	2
0	49443	29.95	2
0	49444	29.95	3
0	49445	29.95	4
0	49446	29.95	3
0	49447	29.95	2
0	49492	30	2
0	49493	30	3
0	49494	30	4
0	49495	30	3
0	49496	30	2
0	49502	30	2
0	49503	30	3
0	49504	30	4
0	49505	30	3
0	49506	30	2
0	49612	30.05	2
0	49613	30.05	3
0	49614	30.05	4
0	49615	30.05	3
0	49616	30.05	2
0	49732	30.1	2
0	49733	30.1	3
0	49734	30.1	4
0	49735	30.1	3
0	49736	30.1	2
0	49742	30.1	2
0	49743	30.1	3
0	49744	30.1	4
0	49745	30.1	3
0	49746	30.1	2
0	49803	30.15	2
0	49804	30.15	3
0	49805	30.15	4
0	49806	30.15	3
0	49807	30.15	2
0	49871	30.2	2
0	49872	30.2	3
0	49873	30.2	4
0	49874	30.2	3
0	49875	30.2	2
0	49881	30.2	2
0	49882	30.2	3
0	49883	30.2	4
0	49884	30.2	3
0	49885	30.2	2
0	49941	30.25	2
0	49942	30.25	3
0	49943	30.25	4
0	49944	30.25	3
0	49945	30.25	2
0	50197	30.3	2
0	50198	30.3	3
0	50199	30.3	4
0	50200	30.3	3
0	50201	30.3	2
0	50207	30.3	2
0	50208	30.3	3
0	50209	30.3	4
0	50210	30.3	3
0	50211	30.3	2
0	50297	30.35	2
0	50298	30.35	3
0	50299	30.35	4
0	50300	30.35	3
0	50301	30.35	2
0	50342	30.4	2
0	50343	30.4	3
0	50344	30.4	4
0	50345	30.4	3
0	50346	30.4	2
0	50352	30.4	2
0	50353	30.4	3
0	50354	30.4	4
0	50355	30.4	3
0	50356	30.4	2
0	50407	30.45	2
0	50408	30.45	3
0	50409	30.45	4
0	50410	30.45	3
0	50411	30.45	2
0	50452	30.5	2
0	50453	30.5	3
0	50454	30.5	4
0	50455	30.5	3
0	50456	30.5	2
0	50462	30.5	2
0	50463	30.5	3
0	50464	30.5	4
0	50465	30.5	3
0	50466	30.5	2
0	50517	30.55	2
0	50518	30.55	3
0	50519	30.55	4
0	50520	30.55	3
0	50521	30.55	2
0	50579	30.6	2
0	50580	30.6	3
0	50581	30.6	4
0	50582	30.6	3
0	50583	30.6	2
0	50589	30.6	2
0	50590	30.6	3
0	50591	30.6	4
0	50592	30.6	3
0	50593	30.6	2
0	50644	30.65	2
0	50645	30.65	3
0	50646	30.65	4
0	50647	30.65	3
0	50648	30.65	2
0	50689	30.7	2
0	50690	30.7	3
0	50691	30.7	4
0	50692	30.7	3
0	50693	30.7	2
0	50699	30.7	2
0	50700	30.7	3
0	50701	30.7	4
0	50702	30.7	3
0	50703	30.7	2
0	50777	30.75	2
0	50778	30.75	3
0	50779	30.75	4
0	50780	30.75	3
0	50781	30.75	2
0	50822	30.8	2
0	50823	30.8	3
0	50824	30.8	4
0	50825	30.8	3
0	50826	30.8	2
0	50832	30.8	2
0	50833	30.8	3
0	50834	30.8	4
0	50835	30.8	3
0	50836	30.8	2
0	51071	30.85	2
0	51072	30.85	3
0	51073	30.85	4
0	51074	30.85	3
0	51075	30.85	2
0	51116	30.9	2
0	51117	30.9	3
0	51118	30.9	4
0	51119	30.9	3
0	51120	30.9	2
0	51126	30.9	2
0	51127	30.9	3
0	51128	30.9	4
0	51129	30.9	3
0	51130	30.9	2
0	51181	30.95	2
0	51182	30.95	3
0	51183	30.95	4
0	51184	30.95	3
0	51185	30.95	2
0	51227	31	2
0	51228	31	3
0	51229	31	4
0	51230	31	3
0	51231	31	2
0	51237	31	2
0	51238	31	3
0	51239	31	4
0	51240	31	3
0	51241	31	2
0	51309	31.05	2
0	51310	31.05	3
0	51311	31.05	4
0	51312	31.05	3
0	51313	31.05	2
0	51359	31.1	2
0	51360	31.1	3
0	51361	31.1	4
0	51362	31.1	3
0	51363	31.1	2
0	51369	31.1	2
0	51370	31.1	3
0	51371	31.1	4
0	51372	31.1	3
0	51373	31.1	2
0	51495	31.15	2
0	51496	31.15	3
0	51497	31.15	4
0	51498	31.15	3
0	51499	31.15	2
0	51596	31.2	2
0	51597	31.2	3
0	51598	31.2	4
0	51599	31.2	3
0	51600	31.2	2
0	51606	31.2	2
0	51607	31.2	3
0	51608	31.2	4
0	51609	31.2	3
0	51610	31.2	2
0	51680	31.25	2
0	51681	31.25	3
0	51682	31.25	4
0	51683	31.25	3
0	51684	31.25	2
0	51748	31.3	2
0	51749	31.3	3
0	51750	31.3	4
0	51751	31.3	3
0	51752	31.3	2
0	51758	31.3	2
0	51759	31.3	3
0	51760	31.3	4
0	51761	31.3	3
0	51762	31.3	2
0	51813	31.35	2
0	51814	31.35	3
0	51815	31.35	4
0	51816	31.35	3
0	51817	31.35	2
0	52069	31.4	2
0	52070	31.4	3
0	52071	31.4	4
0	52072	31.4	3
0	52073	31.4	2
0	52079	31.4	2
0	52080	31.4	3
0	52081	31.4	4
0	52082	31.4	3
0	52083	31.4	2
0	52169	31.45	2
0	52170	31.45	3
0	52171	31.45	4
0	52172	31.45	3
0	52173	31.45	2
0	52214	31.5	2
0	52215	31.5	3
0	52216	31.5	4
0	52217	31.5	3
0	52218	31.5	2
0	52224	31.5	2
0	52225	31.5	3
0	52226	31.5	4
0	52227	31.5	3
0	52228	31.5	2
0	52279	31.55	2
0	52280	31.55	3
0	52281	31.55	4
0	52282	31.55	3
0	52283	31.55	2
0	52347	31.6	2
0	52348	31.6	3
0	52349	31.6	4
0	52350	31.6	3
0	52351	31.6	2
0	52357	31.6	2
0	52358	31.6	3
0	52359	31.6	4
0	52360	31.6	3
0	52361	31.6	2
0	52412	31.65	2
0	52413	31.65	3
0	52414	31.65	4
0	52415	31.65	3
0	52416	31.65	2
0	52491	31.7	2
0	52492	31.7	3
0	52493	31.7	4
0	52494	31.7	3
0	52495	31.7	2
0	52501	31.7	2
0	52502	31.7	3
0	52503	31.7	4
0	52504	31.7	3
0	52505	31.7	2
0	52561	31.75	2
0	52562	31.75	3
0	52563	31.75	4
0	52564	31.75	3
0	52565	31.75	2
0	52606	31.8	2
0	52607	31.8	3
0	52608	31.8	4
0	52609	31.8	3
0	52610	31.8	2
0	52616	31.8	2
0	52617	31.8	3
0	52618	31.8	4
0	52619	31.8	3
0	52620	31.8	2
0	52699	31.85	2
0	52700	31.85	3
0	52701	31.85	4
0	52702	31.85	3
0	52703	31.85	2
0	52744	31.9	2
0	52745	31.9	3
0	52746	31.9	4
0	52747	31.9	3
0	52748	31.9	2
0	52754	31.9	2
0	52755	31.9	3
0	52756	31.9	4
0	52757	31.9	3
0	52758	31.9	2
0	52993	31.95	2
0	52994	31.95	3
0	52995	31.95	4
0	52996	31.95	3
0	52997	31.95	2
0	53040	32	2
0	53041	32	3
0	53042	32	4
0	53043	32	3
0	53044	32	2
0	53050	32	2
0	53051	32	3
0	53052	32	4
0	53053	32	3
0	53054	32	2
0	53105	32.05	2
0	53106	32.05	3
0	53107	32.05	4
0	53108	32.05	3
0	53109	32.05	2
0	53155	32.1	2
0	53156	32.1	3
0	53157	32.1	4
0	53158	32.1	3
0	53159	32.1	2
0	53165	32.1	2
0	53166	32.1	3
0	53167	32.1	4
0	53168	32.1	3
0	53169	32.1	2
0	53226	32.15	2
0	53227	32.15	3
0	53228	32.15	4
0	53229	32.15	3
0	53230	32.15	2
0	53271	32.2	2
0	53272	32.2	3
0	53273	32.2	4
0	53274	32.2	3
0	53275	32.2	2
0	53281	32.2	2
0	53282	32.2	3
0	53283	32.2	4
0	53284	32.2	3
0	53285	32.2	2
0	53392	32.25	2
0	53393	32.25	3
0	53394	32.25	4
0	53395	32.25	3
0	53396	32.25	2
0	53483	32.3	2
0	53484	32.3	3
0	53485	32.3	4
0	53486	32.3	3
0	53487	32.3	2
0	53493	32.3	2
0	53494	32.3	3
0	53495	32.3	4
0	53496	32.3	3
0	53497	32.3	2
0	53548	32.35	2
0	53549	32.35	3
0	53550	32.35	4
0	53551	32.35	3
0	53552	32.35	2
0	53616	32.4	2
0	53617	32.4	3
0	53618	32.4	4
0	53619	32.4	3
0	53620	32.4	2
0	53626	32.4	2
0	53627	32.4	3
0	53628	32.4	4
0	53629	32.4	3
0	53630	32.4	2
0	53681	32.45	2
0	53682	32.45	3
0	53683	32.45	4
0	53684	32.45	3
0	53685	32.45	2
0	53937	32.5	2
0	53938	32.5	3
0	53939	32.5	4
0	53940	32.5	3
0	53941	32.5	2
0	53947	32.5	2
0	53948	32.5	3
0	53949	32.5	4
0	53950	32.5	3
0	53951	32.5	2
0	54037	32.55	2
0	54038	32.55	3
0	54039	32.55	4
0	54040	32.55	3
0	54041	32.55	2
0	54082	32.6	2
0	54083	32.6	3
0	54084	32.6	4
0	54085	32.6	3
0	54086	32.6	2
0	54092	32.6	2
0	54093	32.6	3
0	54094	32.6	4
0	54095	32.6	3
0	54096	32.6	2
0	54147	32.65	2
0	54148	32.65	3
0	54149	32.65	4
0	54150	32.65	3
0	54151	32.65	2
0	54192	32.7	2
0	54193	32.7	3
0	54194	32.7	4
0	54195	32.7	3
0	54196	32.7	2
0	54202	32.7	2
0	54203	32.7	3
0	54204	32.7	4
0	54205	32.7	3
0	54206	32.7	2
0	54257	32.75	2
0	54258	32.75	3
0	54259	32.75	4
0	54260	32.75	3
0	54261	32.75	2
0	54343	32.8	2
0	54344	32.8	3
0	54345	32.8	4
0	54346	32.8	3
0	54347	32.8	2
0	54353	32.8	2
0	54354	32.8	3
0	54355	32.8	4
0	54356	32.8	3
0	54357	32.8	2
0	54416	32.85	2
0	54417	32.85	3
0	54418	32.85	4
0	54419	32.85	3
0	54420	32.85	2
0	54461	32.9	2
0	54462	32.9	3
0	54463	32.9	4
0	54464	32.9	3
0	54465	32.9	2
0	54471	32.9	2
0	54472	32.9	3
0	54473	32.9	4
0	54474	32.9	3
0	54475	32.9	2
0	54531	32.95	2
0	54532	32.95	3
0	54533	32.95	4
0	54534	32.95	3
0	54535	32.95	2
0	54577	33	2
0	54578	33	3
0	54579	33	4
0	54580	33	3
0	54581	33	2
0	54587	33	2
0	54588	33	3
0	54589	33	4
0	54590	33	3
0	54591	33	2
0	54826	33.05	2
0	54827	33.05	3
0	54828	33.05	4
0	54829	33.05	3
0	54830	33.05	2
0	54876	33.1	2
0	54877	33.1	3
0	54878	33.1	4
0	54879	33.1	3
0	54880	33.1	2
0	54886	33.1	2
0	54887	33.1	3
0	54888	33.1	4
0	54889	33.1	3
0	54890	33.1	2
0	54947	33.15	2
0	54948	33.15	3
0	54949	33.15	4
0	54950	33.15	3
0	54951	33.15	2
0	54997	33.2	2
0	54998	33.2	3
0	54999	33.2	4
0	55000	33.2	3
0	55001	33.2	2
0	55007	33.2	2
0	55008	33.2	3
0	55009	33.2	4
0	55010	33.2	3
0	55011	33.2	2
0	55062	33.25	2
0	55063	33.25	3
0	55064	33.25	4
0	55065	33.25	3
0	55066	33.25	2
0	55112	33.3	2
0	55113	33.3	3
0	55114	33.3	4
0	55115	33.3	3
0	55116	33.3	2
0	55122	33.3	2
0	55123	33.3	3
0	55124	33.3	4
0	55125	33.3	3
0	55126	33.3	2
0	55182	33.35	2
0	55183	33.35	3
0	55184	33.35	4
0	55185	33.35	3
0	55186	33.35	2
0	55227	33.4	2
0	55228	33.4	3
0	55229	33.4	4
0	55230	33.4	3
0	55231	33.4	2
0	55237	33.4	2
0	55238	33.4	3
0	55239	33.4	4
0	55240	33.4	3
0	55241	33.4	2
0	55297	33.45	2
0	55298	33.45	3
0	55299	33.45	4
0	55300	33.45	3
0	55301	33.45	2
0	55342	33.5	2
0	55343	33.5	3
0	55344	33.5	4
0	55345	33.5	3
0	55346	33.5	2
0	55352	33.5	2
0	55353	33.5	3
0	55354	33.5	4
0	55355	33.5	3
0	55356	33.5	2
0	55407	33.55	2
0	55408	33.55	3
0	55409	33.55	4
0	55410	33.55	3
0	55411	33.55	2
0	55663	33.6	2
0	55664	33.6	3
0	55665	33.6	4
0	55666	33.6	3
0	55667	33.6	2
0	55673	33.6	2
0	55674	33.6	3
0	55675	33.6	4
0	55676	33.6	3
0	55677	33.6	2
0	55763	33.65	2
0	55764	33.65	3
0	55765	33.65	4
0	55766	33.65	3
0	55767	33.65	2
0	55808	33.7	2
0	55809	33.7	3
0	55810	33.7	4
0	55811	33.7	3
0	55812	33.7	2
0	55818	33.7	2
0	55819	33.7	3
0	55820	33.7	4
0	55821	33.7	3
0	55822	33.7	2
0	55873	33.75	2
0	55874	33.75	3
0	55875	33.75	4
0	55876	33.75	3
0	55877	33.75	2
0	55918	33.8	2
0	55919	33.8	3
0	55920	33.8	4
0	55921	33.8	3
0	55922	33.8	2
0	55928	33.8	2
0	55929	33.8	3
0	55930	33.8	4
0	55931	33.8	3
0	55932	33.8	2
0	55983	33.85	2
0	55984	33.85	3
0	55985	33.85	4
0	55986	33.85	3
0	55987	33.85	2
0	56028	33.9	2
0	56029	33.9	3
0	56030	33.9	4
0	56031	33.9	3
0	56032	33.9	2
0	56038	33.9	2
0	56039	33.9	3
0	56040	33.9	4
0	56041	33.9	3
0	56042	33.9	2
0	56093	33.95	2
0	56094	33.95	3
0	56095	33.95	4
0	56096	33.95	3
0	56097	33.95	2
0	56140	34	2
0	56141	34	3
0	56142	34	4
0	56143	34	3
0	56144	34	2
0	56150	34	2
0	56151	34	3
0	56152	34	4
0	56153	34	3
0	56154	34	2
0	56205	34.05	2
0	56206	34.05	3
0	56207	34.05	4
0	56208	34.05	3
0	56209	34.05	2
0	56255	34.1	2
0	56256	34.1	3
0	56257	34.1	4
0	56258	34.1	3
0	56259	34.1	2
0	56265	34.1	2
0	56266	34.1	3
0	56267	34.1	4
0	56268	34.1	3
0	56269	34.1	2
0	56537	34.15	2
0	56538	34.15	3
0	56539	34.15	4
0	56540	34.15	3
0	56541	34.15	2
0	56617	34.2	2
0	56618	34.2	3
0	56619	34.2	4
0	56620	34.2	3
0	56621	34.2	2
0	56627	34.2	2
0	56628	34.2	3
0	56629	34.2	4
0	56630	34.2	3
0	56631	34.2	2
0	56682	34.25	2
0	56683	34.25	3
0	56684	34.25	4
0	56685	34.25	3
0	56686	34.25	2
0	56727	34.3	2
0	56728	34.3	3
0	56729	34.3	4
0	56730	34.3	3
0	56731	34.3	2
0	56737	34.3	2
0	56738	34.3	3
0	56739	34.3	4
0	56740	34.3	3
0	56741	34.3	2
0	56792	34.35	2
0	56793	34.35	3
0	56794	34.35	4
0	56795	34.35	3
0	56796	34.35	2
0	56884	34.4	2
0	56885	34.4	3
0	56886	34.4	4
0	56887	34.4	3
0	56888	34.4	2
0	56894	34.4	2
0	56895	34.4	3
0	56896	34.4	4
0	56897	34.4	3
0	56898	34.4	2
0	57009	34.45	2
0	57010	34.45	3
0	57011	34.45	4
0	57012	34.45	3
0	57013	34.45	2
0	57054	34.5	2
0	57055	34.5	3
0	57056	34.5	4
0	57057	34.5	3
0	57058	34.5	2
0	57064	34.5	2
0	57065	34.5	3
0	57066	34.5	4
0	57067	34.5	3
0	57068	34.5	2
0	57124	34.55	2
0	57125	34.55	3
0	57126	34.55	4
0	57127	34.55	3
0	57128	34.55	2
0	57169	34.6	2
0	57170	34.6	3
0	57171	34.6	4
0	57172	34.6	3
0	57173	34.6	2
0	57179	34.6	2
0	57180	34.6	3
0	57181	34.6	4
0	57182	34.6	3
0	57183	34.6	2
0	57234	34.65	2
0	57235	34.65	3
0	57236	34.65	4
0	57237	34.65	3
0	57238	34.65	2
0	57463	34.7	2
0	57464	34.7	3
0	57465	34.7	4
0	57466	34.7	3
0	57467	34.7	2
0	57473	34.7	2
0	57474	34.7	3
0	57475	34.7	4
[...]
1	111463	68.1	nan
1	111464	68.1	nan
1	112956	69.1	nan
1	112957	69.1	nan
1	112958	69.1	nan
1	112959	69.1	nan
1	112960	69.1	nan
1	114395	70.1	nan
1	114396	70.1	nan
1	114397	70.1	nan
1	114398	70.1	nan
1	114399	70.1	nan
1	115874	71.1	nan
1	115875	71.1	nan
1	115876	71.1	nan
1	115877	71.1	nan
1	115878	71.1	nan
1	117336	72.1	nan
1	117337	72.1	nan
1	117338	72.1	nan
1	117339	72.1	nan
1	117340	72.1	nan
1	118637	73.1	nan
1	118638	73.1	nan
1	118639	73.1	nan
1	118640	73.1	nan
1	118641	73.1	nan
1	120093	74.1	nan
1	120094	74.1	nan
1	120095	74.1	nan
1	120096	74.1	nan
1	120097	74.1	nan
1	121532	75.1	nan
1	121533	75.1	nan
1	121534	75.1	nan
1	121535	75.1	nan
1	121536	75.1	nan
1	123491	76.1	nan
1	123492	76.1	nan
1	123493	76.1	nan
1	123494	76.1	nan
1	123495	76.1	nan
1	124961	77.1	nan
1	124962	77.1	nan
1	124963	77.1	nan
1	124964	77.1	nan
1	124965	77.1	nan
1	126253	78.1	nan
1	126254	78.1	nan
1	126255	78.1	nan
1	126256	78.1	nan
1	126257	78.1	nan
1	127782	79.1	nan
1	127783	79.1	nan
1	127784	79.1	nan
1	127785	79.1	nan
1	127786	79.1	nan
1	129212	80.1	nan
1	129213	80.1	nan
1	129214	80.1	nan
1	129215	80.1	nan
1	129216	80.1	nan
1	130655	81.1	nan
1	130656	81.1	nan
1	130657	81.1	nan
1	130658	81.1	nan
1	130659	81.1	nan
1	132087	82.1	nan
1	132088	82.1	nan
1	132089	82.1	nan
1	132090	82.1	nan
1	132091	82.1	nan
1	133733	83.1	nan
1	133734	83.1	nan
1	133735	83.1	nan
1	133736	83.1	nan
1	133737	83.1	nan
1	135025	84.1	nan
1	135026	84.1	nan
1	135027	84.1	nan
1	135028	84.1	nan
1	135029	84.1	nan
1	136555	85.1	nan
1	136556	85.1	nan
1	136557	85.1	nan
1	136558	85.1	nan
1	136559	85.1	nan
1	138154	86.1	nan
1	138155	86.1	nan
1	138156	86.1	nan
1	138157	86.1	nan
1	138158	86.1	nan
1	139631	87.1	nan
1	139632	87.1	nan
1	139633	87.1	nan
1	139634	87.1	nan
1	139635	87.1	nan
1	141063	88.1	nan
1	141064	88.1	nan
1	141065	88.1	nan
1	141066	88.1	nan
1	141067	88.1	nan
1	142477	89.1	nan
1	142478	89.1	nan
1	142479	89.1	nan
1	142480	89.1	nan
1	142481	89.1	nan
1	144042	90.1	nan
1	144043	90.1	nan
1	144044	90.1	nan
1	144045	90.1	nan
1	144046	90.1	nan
1	145502	91.1	nan
1	145503	91.1	nan
1	145504	91.1	nan
1	145505	91.1	nan
1	145506	91.1	nan
1	146940	92.1	nan
1	146941	92.1	nan
1	146942	92.1	nan
1	146943	92.1	nan
1	146944	92.1	nan
1	148439	93.1	nan
1	148440	93.1	nan
1	148441	93.1	nan
1	148442	93.1	nan
1	148443	93.1	nan
1	149899	94.1	nan
1	149900	94.1	nan
1	149901	94.1	nan
1	149902	94.1	nan
1	149903	94.1	nan
1	151308	95.1	nan
1	151309	95.1	nan
1	151310	95.1	nan
1	151311	95.1	nan
1	151312	95.1	nan
1	152763	96.1	nan
1	152764	96.1	nan
1	152765	96.1	nan
1	152766	96.1	nan
1	152767	96.1	nan
1	154283	97.1	nan
1	154284	97.1	nan
1	154285	97.1	nan
1	154286	97.1	nan
1	154287	97.1	nan
1	155805	98.1	nan
1	155806	98.1	nan
1	155807	98.1	nan
1	155808	98.1	nan
1	155809	98.1	nan
1	157297	99.1	nan
1	157298	99.1	nan
1	157299	99.1	nan
1	157300	99.1	nan
1	157301	99.1	nan
1	158642	100.1	nan
1	158643	100.1	nan
1	158644	100.1	nan
1	158645	100.1	nan
1	158646	100.1	nan
1	160162	101.1	nan
1	160163	101.1	nan
1	160164	101.1	nan
1	160165	101.1	nan
1	160166	101.1	nan
1	161600	102.1	nan
1	161601	102.1	nan
1	161602	102.1	nan
1	161603	102.1	nan
1	161604	102.1	nan
1	163096	103.1	nan
1	163097	103.1	nan
1	163098	103.1	nan
1	163099	103.1	nan
1	163100	103.1	nan
1	164537	104.1	nan
1	164538	104.1	nan
1	164539	104.1	nan
1	164540	104.1	nan
1	164541	104.1	nan
1	165996	105.1	nan
1	165997	105.1	nan
1	165998	105.1	nan
1	165999	105.1	nan
1	166000	105.1	nan
1	167342	106.1	nan
1	167343	106.1	nan
1	167344	106.1	nan
1	167345	106.1	nan
1	167346	106.1	nan
1	168779	107.1	nan
1	168780	107.1	nan
1	168781	107.1	nan
1	168782	107.1	nan
1	168783	107.1	nan
1	170239	108.1	nan
1	170240	108.1	nan
1	170241	108.1	nan
1	170242	108.1	nan
1	170243	108.1	nan
1	171687	109.1	nan
1	171688	109.1	nan
1	171689	109.1	nan
1	171690	109.1	nan
1	171691	109.1	nan
1	173322	110.1	nan
1	173323	110.1	nan
1	173324	110.1	nan
1	173325	110.1	nan
1	173326	110.1	nan
1	174707	111.1	nan
1	174708	111.1	nan
1	174709	111.1	nan
1	174710	111.1	nan
1	174711	111.1	nan
1	176134	112.1	nan
1	176135	112.1	nan
1	176136	112.1	nan
1	176137	112.1	nan
1	176138	112.1	nan
1	177684	113.1	nan
1	177685	113.1	nan
1	177686	113.1	nan
1	177687	113.1	nan
1	177688	113.1	nan
1	179121	114.1	nan
1	179122	114.1	nan
1	179123	114.1	nan
1	179124	114.1	nan
1	179125	114.1	nan
1	180628	115.1	nan
1	180629	115.1	nan
1	180630	115.1	nan
1	180631	115.1	nan
1	180632	115.1	nan
1	182167	116.1	nan
1	182168	116.1	nan
1	182169	116.1	nan
1	182170	116.1	nan
1	182171	116.1	nan
1	183506	117.1	nan
1	183507	117.1	nan
1	183508	117.1	nan
1	183509	117.1	nan
1	183510	117.1	nan
1	185013	118.1	nan
1	185014	118.1	nan
1	185015	118.1	nan
1	185016	118.1	nan
1	185017	118.1	nan
1	186506	119.1	nan
1	186507	119.1	nan
1	186508	119.1	nan
1	186509	119.1	nan
1	186510	119.1	nan
1	187938	120.1	nan
1	187939	120.1	nan
1	187940	120.1	nan
1	187941	120.1	nan
1	187942	120.1	nan
1	189506	121.1	nan
1	189507	121.1	nan
1	189508	121.1	nan
1	189509	121.1	nan
1	189510	121.1	nan
1	190998	122.1	nan
1	190999	122.1	nan
1	191000	122.1	nan
1	191001	122.1	nan
1	191002	122.1	nan
1	192540	123.1	nan
1	192541	123.1	nan
1	192542	123.1	nan
1	192543	123.1	nan
1	192544	123.1	nan
1	194049	124.1	nan
1	194050	124.1	nan
1	194051	124.1	nan
1	194052	124.1	nan
1	194053	124.1	nan
1	195568	125.1	nan
1	195569	125.1	nan
1	195570	125.1	nan
1	195571	125.1	nan
1	195572	125.1	nan
1	197015	126.1	nan
1	197016	126.1	nan
1	197017	126.1	nan
1	197018	126.1	nan
1	197019	126.1	nan
1	198520	127.1	nan
1	198521	127.1	nan
1	198522	127.1	nan
1	198523	127.1	nan
1	198524	127.1	nan
1	199963	128.1	nan
1	199964	128.1	nan
1	199965	128.1	nan
1	199966	128.1	nan
1	199967	128.1	nan
2	104537	63.298183936469	48081
2	104544	63.298259634061	48222
2	104636	63.302825147999	48363
2	106142	64.38346185826	48504
2	106191	64.398182757298	48645
2	106275	64.402836354418	48786
2	107744	65.483456882529	48927
2	107793	65.498180691986	49068
2	107879	65.502836801257	49209
2	109360	66.583452329917	49350
2	109409	66.598178941401	49491
2	109493	66.602837253959	49632
2	110199	67.133450203832	49773
2	110248	67.148178178215	49914
2	110312	67.152837482524	50055
2	111770	68.233446236249	50196
2	111819	68.248176865807	50337
2	111885	68.252837944116	50478
2	113405	69.348175827091	50619
2	113469	69.352838411703	50760
2	114949	70.448175050608	50901
2	115015	70.452838885338	51042
2	116561	71.54817452768	51183
2	116627	71.552839365078	51324
2	118110	72.648174252403	51465
2	118174	72.652839850975	51606
2	118923	73.198174206549	51747
2	119007	73.202906117338	51888
2	120472	74.298174297753	52029
2	120556	74.302840591493	52170
2	122047	75.383428286504	52311
2	122094	75.397268276741	52452
2	122180	75.402790875619	52593
2	122188	75.402841093033	52734
2	122214	75.411108266994	52875
2	122232	75.424948257262	53016
2	122250	75.438788247546	53157
2	122313	75.452628237846	53298
2	122331	75.466468228161	53439
2	122349	75.480308218492	53580
2	122367	75.494148208838	53721
2	122450	75.5079881992	53862
2	122468	75.521828189578	54003
2	122486	75.535668179971	54144
2	122504	75.54950817038	54285
2	122567	75.563348160804	54426
2	122585	75.577188151244	54567
2	122603	75.591028141699	54708
2	122686	75.60486813217	54849
2	122704	75.618708122657	54990
2	122722	75.632548113158	55131
2	122740	75.646388103676	55272
2	122803	75.660228094209	55413
2	122821	75.674068084757	55554
2	122839	75.687908075321	55695
2	122922	75.7017480659	55836
2	122940	75.715588056494	55977
2	123363	75.952791071848	56118
2	124069	76.483426533741	56259
2	124180	76.502791315199	56400
2	125644	77.583425005377	56541
2	125755	77.602791946132	56682
2	126451	78.133424321195	56823
2	126542	78.15279233547	56964
2	126813	78.397775802829	57105
2	128090	79.233423105128	57246
2	128181	79.252793267264	57387
2	129630	80.333422082719	57528
2	129721	80.352794411903	57669
2	131183	81.433421243775	57810
2	131274	81.452795781682	57951
2	132205	82.133923172196	58092
2	132224	82.147763155392	58233
2	132288	82.16160313861	58374
2	132307	82.175443121852	58515
2	132326	82.189283105116	58656
2	132410	82.203123088403	58797
2	132892	82.533420579467	58938
2	132983	82.552797391066	59079
2	133137	82.683921607809	59220
2	134481	83.63342008246	59361
2	134572	83.652799256761	59502
2	135268	84.183419894843	59643
2	135379	84.202800291581	59784
2	136251	84.8339164162	59925
2	136908	85.283419638611	60066
2	137019	85.302802578192	60207
2	137110	85.383915345259	60348
2	137124	85.397755334669	60489
2	137941	85.933914386232	60630
2	137960	85.94775437683	60771
2	138617	86.383419538683	60912
2	138728	86.402805173289	61053
2	140204	87.483419593843	61194
2	140315	87.502808102163	61335
2	141780	88.583419804763	61476
2	141891	88.602811392745	61617
2	142289	88.947751233586	61758
2	142353	88.961591231102	61899
2	142675	89.133419969356	62040
2	142766	89.152813183134	62181
2	143168	89.497751052788	62322
2	143984	90.033910996648	62463
2	144350	90.23342031478	62604
2	144441	90.252816142526	62745
2	145911	91.33342031478	62886
2	145993	91.352816142526	63027
2	147097	92.183910996648	63168
2	147116	92.197750996648	63309
2	147200	92.211590996648	63450
2	147531	92.43342031478	63591
2	147559	92.443536142526	63732
2	148593	93.133511186651	63873
2	149151	93.53342031478	64014
2	150140	94.233511186651	64155
2	150693	94.63342031478	64296
2	151055	94.883910996648	64437
2	151074	94.897750996648	64578
2	151530	95.18342031478	64719
2	151789	95.333511186651	64860
2	153095	96.28342031478	65001
2	153337	96.433511186651	65142
2	154206	97.033910996648	65283
2	154225	97.047750996648	65424
2	154725	97.38342031478	65565
2	154990	97.533511186651	65706
2	155079	97.583910996648	65847
2	155913	98.133910996648	65988
2	156401	98.48342031478	66129
2	156666	98.633511186651	66270
2	157473	99.183511186651	66411
2	158031	99.58342031478	66552
2	158819	100.13342031478	66693
2	159041	100.283511186651	66834
2	159863	100.843702409664	66975
2	159927	100.857542409664	67116
2	160454	101.23342031478	67257
2	160676	101.383511186651	67398
2	161997	102.33342031478	67539
2	162153	102.433910996648	67680
2	162172	102.447750996648	67821
2	162279	102.483511186651	67962
2	163603	103.43342031478	68103
2	163825	103.583511186651	68244
2	164470	104.033910996648	68385
2	164484	104.047750996648	68526
2	164668	104.133511186651	68667
2	165244	104.53342031478	68808
2	166237	105.233511186651	68949
2	166790	105.63342031478	69090
2	167569	106.18342031478	69231
2	167811	106.333511186651	69372
2	169111	107.28342031478	69513
2	169376	107.433511186651	69654
2	170681	108.38342031478	69795
2	170923	108.533511186651	69936
2	171809	109.133910996648	70077
2	171828	109.147750996648	70218
2	171892	109.161590996648	70359
2	171911	109.175430996648	70500
2	171925	109.189270996648	70641
2	172009	109.203110996648	70782
2	172028	109.216950996648	70923
2	172047	109.230790996648	71064
2	172425	109.48342031478	71205
2	172690	109.633511186651	71346
2	173498	110.183511186651	71487
2	174068	110.58342031478	71628
2	174884	111.13342031478	71769
2	175106	111.283511186651	71910
2	176435	112.23342031478	72051
2	176688	112.383511186651	72192
2	176716	112.393702409664	72333
2	176803	112.421382409664	72474
2	176822	112.435222409664	72615
2	178081	113.33342031478	72756
2	178303	113.483511186651	72897
2	179651	114.43342031478	73038
2	179890	114.583511186651	73179
2	180604	115.083910996648	73320
2	180623	115.097750996648	73461
2	180723	115.111590996648	73602
2	180777	115.133511186651	73743
2	181356	115.53342031478	73884
2	181510	115.633910996648	74025
2	182413	116.233511186651	74166
2	182966	116.63342031478	74307
2	183728	117.18342031478	74448
2	183970	117.333511186651	74589
2	184603	117.797750996648	74730
2	184687	117.811590996648	74871
2	185362	118.28342031478	75012
2	185621	118.433511186651	75153
2	186948	119.38342031478	75294
2	187190	119.533511186651	75435
2	188530	120.48342031478	75576
2	188538	120.483511186651	75717
2	188548	120.483910996648	75858
2	188569	120.497750996648	75999
2	188652	120.511590996648	76140
2	189131	120.883910996648	76281
2	189144	120.897750996648	76422
2	189222	120.911590996648	76563
2	189997	121.447750996648	76704
2	190061	121.461590996648	76845
2	190307	121.58342031478	76986
2	190315	121.583511186651	77127
2	190855	121.983910996648	77268
2	190874	121.997750996648	77409
2	191203	122.13342031478	77550
2	191211	122.133511186651	77691
2	192527	123.083910996648	77832
2	192855	123.23342031478	77973
2	192863	123.233511186651	78114
2	193401	123.633910996648	78255
2	194204	124.183910996648	78396
2	194223	124.197750996648	78537
2	194533	124.33342031478	78678
2	194541	124.333511186651	78819
2	196080	125.43342031478	78960
2	196088	125.433511186651	79101
2	197002	126.083910996648	79242
2	197706	126.53342031478	79383
2	197714	126.533511186651	79524
2	199338	127.63342031478	79665
2	199346	127.633511186651	79806
2	199510	127.733910996648	79947
2	199529	127.747750996648	80088
2	200213	128.18342031478	80229
2	200221	128.183511186651	80370
2	200383	128.283910996648	80511
3	104537	63.298183936469	48081
3	104544	63.298259634061	48222
3	104636	63.302825147999	48363
3	106142	64.38346185826	48504
3	106191	64.398182757298	48645
3	106275	64.402836354418	48786
3	107744	65.483456882529	48927
3	107793	65.498180691986	49068
3	107879	65.502836801257	49209
3	109360	66.583452329917	49350
3	109409	66.598178941401	49491
3	109493	66.602837253959	49632
3	110199	67.133450203832	49773
3	110248	67.148178178215	49914
3	110312	67.152837482524	50055
3	111770	68.233446236249	50196
3	111819	68.248176865807	50337
3	111885	68.252837944116	50478
3	113405	69.348175827091	50619
3	113469	69.352838411703	50760
3	114949	70.448175050608	50901
3	115015	70.452838885338	51042
3	116561	71.54817452768	51183
3	116627	71.552839365078	51324
3	118110	72.648174252403	51465
3	118174	72.652839850975	51606
3	118923	73.198174206549	51747
3	119007	73.202906117338	51888
3	120472	74.298174297753	52029
3	120556	74.302840591493	52170
3	122047	75.383428286504	52311
3	122094	75.397268276741	52452
3	122180	75.402790875619	52593
3	122188	75.402841093033	52734
3	122214	75.411108266994	52875
3	122232	75.424948257262	53016
3	122250	75.438788247546	53157
3	122313	75.452628237846	53298
3	122331	75.466468228161	53439
3	122349	75.480308218492	53580
3	122367	75.494148208838	53721
3	122450	75.5079881992	53862
3	122468	75.521828189578	54003
3	122486	75.535668179971	54144
3	122504	75.54950817038	54285
3	122567	75.563348160804	54426
3	122585	75.577188151244	54567
3	122603	75.591028141699	54708
3	122686	75.60486813217	54849
3	122704	75.618708122657	54990
3	122722	75.632548113158	55131
3	122740	75.646388103676	55272
3	122803	75.660228094209	55413
3	122821	75.674068084757	55554
3	122839	75.687908075321	55695
3	122922	75.7017480659	55836
3	122940	75.715588056494	55977
3	123363	75.952791071848	56118
3	124069	76.483426533741	56259
3	124180	76.502791315199	56400
3	125644	77.583425005377	56541
3	125755	77.602791946132	56682
3	126451	78.133424321195	56823
3	126542	78.15279233547	56964
3	126813	78.397775802829	57105
3	128090	79.233423105128	57246
3	128181	79.252793267264	57387
3	129630	80.333422082719	57528
3	129721	80.352794411903	57669
3	131183	81.433421243775	57810
3	131274	81.452795781682	57951
3	132205	82.133923172196	58092
3	132224	82.147763155392	58233
3	132288	82.16160313861	58374
3	132307	82.175443121852	58515
3	132326	82.189283105116	58656
3	132410	82.203123088403	58797
3	132892	82.533420579467	58938
3	132983	82.552797391066	59079
3	133137	82.683921607809	59220
3	134481	83.63342008246	59361
3	134572	83.652799256761	59502
3	135268	84.183419894843	59643
3	135379	84.202800291581	59784
3	136251	84.8339164162	59925
3	136908	85.283419638611	60066
3	137019	85.302802578192	60207
3	137110	85.383915345259	60348
3	137124	85.397755334669	60489
3	137941	85.933914386232	60630
3	137960	85.94775437683	60771
3	138617	86.383419538683	60912
3	138728	86.402805173289	61053
3	140204	87.483419593843	61194
3	140315	87.502808102163	61335
3	141780	88.583419804763	61476
3	141891	88.602811392745	61617
3	142289	88.947751233586	61758
3	142353	88.961591231102	61899
3	142675	89.133419969356	62040
3	142766	89.152813183134	62181
3	143168	89.497751052788	62322
3	143984	90.033910996648	62463
3	144350	90.23342031478	62604
3	144441	90.252816142526	62745
3	145911	91.33342031478	62886
3	145993	91.352816142526	63027
3	147097	92.183910996648	63168
3	147116	92.197750996648	63309
3	147200	92.211590996648	63450
3	147531	92.43342031478	63591
3	147559	92.443536142526	63732
3	148593	93.133511186651	63873
3	149151	93.53342031478	64014
3	150140	94.233511186651	64155
3	150693	94.63342031478	64296
3	151055	94.883910996648	64437
3	151074	94.897750996648	64578
3	151530	95.18342031478	64719
3	151789	95.333511186651	64860
3	153095	96.28342031478	65001
3	153337	96.433511186651	65142
3	154206	97.033910996648	65283
3	154225	97.047750996648	65424
3	154725	97.38342031478	65565
3	154990	97.533511186651	65706
3	155079	97.583910996648	65847
3	155913	98.133910996648	65988
3	156401	98.48342031478	66129
3	156666	98.633511186651	66270
3	157473	99.183511186651	66411
3	158031	99.58342031478	66552
3	158819	100.13342031478	66693
3	159041	100.283511186651	66834
3	159863	100.843702409664	66975
3	159927	100.857542409664	67116
3	160454	101.23342031478	67257
3	160676	101.383511186651	67398
3	161997	102.33342031478	67539
3	162153	102.433910996648	67680
3	162172	102.447750996648	67821
3	162279	102.483511186651	67962
3	163603	103.43342031478	68103
3	163825	103.583511186651	68244
3	164470	104.033910996648	68385
3	164484	104.047750996648	68526
3	164668	104.133511186651	68667
3	165244	104.53342031478	68808
3	166237	105.233511186651	68949
3	166790	105.63342031478	69090
3	167569	106.18342031478	69231
3	167811	106.333511186651	69372
3	169111	107.28342031478	69513
3	169376	107.433511186651	69654
3	170681	108.38342031478	69795
3	170923	108.533511186651	69936
3	171809	109.133910996648	70077
3	171828	109.147750996648	70218
3	171892	109.161590996648	70359
3	171911	109.175430996648	70500
3	171925	109.189270996648	70641
3	172009	109.203110996648	70782
3	172028	109.216950996648	70923
3	172047	109.230790996648	71064
3	172425	109.48342031478	71205
3	172690	109.633511186651	71346
3	173498	110.183511186651	71487
3	174068	110.58342031478	71628
3	174884	111.13342031478	71769
3	175106	111.283511186651	71910
3	176435	112.23342031478	72051
3	176688	112.383511186651	72192
3	176716	112.393702409664	72333
3	176803	112.421382409664	72474
3	176822	112.435222409664	72615
3	178081	113.33342031478	72756
3	178303	113.483511186651	72897
3	179651	114.43342031478	73038
3	179890	114.583511186651	73179
3	180604	115.083910996648	73320
3	180623	115.097750996648	73461
3	180723	115.111590996648	73602
3	180777	115.133511186651	73743
3	181356	115.53342031478	73884
3	181510	115.633910996648	74025
3	182413	116.233511186651	74166
3	182966	116.63342031478	74307
3	183728	117.18342031478	74448
3	183970	117.333511186651	74589
3	184603	117.797750996648	74730
3	184687	117.811590996648	74871
3	185362	118.28342031478	75012
3	185621	118.433511186651	75153
3	186948	119.38342031478	75294
3	187190	119.533511186651	75435
3	188530	120.48342031478	75576
3	188538	120.483511186651	75717
3	188548	120.483910996648	75858
3	188569	120.497750996648	75999
3	188652	120.511590996648	76140
3	189131	120.883910996648	76281
3	189144	120.897750996648	76422
3	189222	120.911590996648	76563
3	189997	121.447750996648	76704
3	190061	121.461590996648	76845
3	190307	121.58342031478	76986
3	190315	121.583511186651	77127
3	190855	121.983910996648	77268
3	190874	121.997750996648	77409
3	191203	122.13342031478	77550
3	191211	122.133511186651	77691
3	192527	123.083910996648	77832
3	192855	123.23342031478	77973
3	192863	123.233511186651	78114
3	193401	123.633910996648	78255
3	194204	124.183910996648	78396
3	194223	124.197750996648	78537
3	194533	124.33342031478	78678
3	194541	124.333511186651	78819
3	196080	125.43342031478	78960
3	196088	125.433511186651	79101
3	197002	126.083910996648	79242
3	197706	126.53342031478	79383
3	197714	126.533511186651	79524
3	199338	127.63342031478	79665
3	199346	127.633511186651	79806
3	199510	127.733910996648	79947
3	199529	127.747750996648	80088
3	200213	128.18342031478	80229
3	200221	128.183511186651	80370
3	200383	128.283910996648	80511

