version 2
run rsa-0-20191012-00:09:42-10888
attr configname rsa
attr datetime 20191012-00:09:42
attr experiment rsa
attr inifile SimV3.ini
attr iterationvars ""
attr iterationvarsf ""
attr measurement ""
attr network NetworkTormV2
attr processid 10888
attr repetition 0
attr replication #0
attr resultdir results
attr runnumber 0
attr seedset 0
param **.mobility.traceFile "\"pathsGW/rsa.movements\""
param **.numNodes 3
param **.application.dataGenerationInterval 1s
param **.application.dataSizeInBytes 10
param **.application.ttl 999999s
param **application.nodesThatGen false
param **application.nodesGenMsg "\"\""
param **application.startMultipleMsg false
param **application.numMultipleMsg 100
param **application.hopsListSize 50
param **.application.endGeneratingMsg 99s
param **.routingLayer "\"RoutingLqeGw\""
param **.routing.maximumCacheSize 5000byte
param **.routing.maximumHopCount 25
param **.routing.useTTL false
param **.routing.waitBFsend 0.5
param **.routing.max_age 999999s
param **.routing.gateway_list "\"\""
param **.routing.actual_gateway "\"\""
param **.routing.gwCheckPeriod 5s
param **.wirelessIfc.wirelessRange 40m
param **.numNodes 2
param **.application.usedRNG 1
param **.application.dataGenerationInterval 1s
param **.application.dataSizeInBytes 10
param **.application.ttl 999999s
param **application.destinationAddr "\"Wf:00:00:00:00:02\""
param **application.destinationBTAddr "\"Bt:00:00:00:00:02\""
param **application.nodesThatGen true
param **application.nodesGenMsg "\"0\""
param **application.startMultipleMsg true
param **application.numMultipleMsg 100
param **application.hopsListSize 50
param **.application.endGeneratingMsg 999999s
param **.routingLayer "\"RoutingLqeGw\""
param **.routing.maximumCacheSize 5000byte
param **.routing.maximumHopCount 25
param **.routing.useTTL false
param **.routing.waitBFsend 0.5
param **.routing.max_age 999999s
param **.routing.gateway_list "\"\""
param **.routing.actual_gateway "\"\""
param **.routing.gwCheckPeriod 5s
param **.neighboring.antiEntropyInterval 500ms
param **.neighboring.maximumRandomBackoffDuration 1s
param **.neighboring.delayPerDataMsg 0.1
param **neighboring.usedRNG 2
param **.neighboring.GWAddr "\"Wf:00:00:00:00:02\""
param **.neighboring.sendWifiFirst true
param **.neighboring.maxLengthGraph 20
param **.neighboring.max_age 999999s
param **.neighboring.max_absent_time 1s
param **.wirelessIfc.wirelessRange 40m
param **.wirelessIfc.neighbourScanInterval 50ms
param **.wirelessIfc.bandwidthBitRate 100000bps
param **.wirelessIfc.wirelessHeaderSize 32byte
param **.wirelessIfc.minSSI -90
param **.wirelessIfc.limitQueueTime 400ms
param **.wirelessIfc.my_limit_rate 0bps
param **.bluetoothIfc.wirelessRange 40m
param **.bluetoothIfc.neighbourScanInterval 100ms
param **.bluetoothIfc.bandwidthBitRate 100000bps
param **.bluetoothIfc.wirelessHeaderSize 16byte
param **.bluetoothIfc.minSSI -90
param **.mobilityType "\"BonnMotionMobility\""
param **.mobility.traceFile "\"paths/Moves2.movements\""
param **.mobility.is3D false
param **.mobility.nodeId -1

vector 0 NetworkTormV2 neighbourhoodSize:vector ETV
attr source neighbourhoodSize
vector 1 NetworkTormV2 deliveryRatio:vector ETV
attr source sum(totalDataBytesReceived)/sum(totalDataBytesReceivableByAllNodes)
vector 2 NetworkTormV2 dataBytesReceivedSum:vector ETV
attr source sum(dataBytesReceived)
vector 3 NetworkTormV2 totalBytesReceivedSum:vector ETV
attr source sum(totalBytesReceived)
0	10	0.05	2
0	11	0.05	2
0	12	0.05	2
0	38	0.1	2
0	40	0.1	2
0	42	0.1	2
0	44	0.1	2
0	45	0.1	2
0	46	0.1	2
0	80	0.15	2
0	81	0.15	2
0	82	0.15	2
0	107	0.2	2
0	108	0.2	2
0	109	0.2	2
0	111	0.2	2
0	112	0.2	2
0	113	0.2	2
0	144	0.25	2
0	145	0.25	2
0	146	0.25	2
0	171	0.3	2
0	172	0.3	2
0	173	0.3	2
0	175	0.3	2
0	176	0.3	2
0	177	0.3	2
0	208	0.35	2
0	209	0.35	2
0	210	0.35	2
0	235	0.4	2
0	236	0.4	2
0	237	0.4	2
0	239	0.4	2
0	240	0.4	2
0	241	0.4	2
0	272	0.45	2
0	273	0.45	2
0	274	0.45	2
0	299	0.5	2
0	300	0.5	2
0	301	0.5	2
0	303	0.5	2
0	304	0.5	2
0	305	0.5	2
0	336	0.55	2
0	337	0.55	2
0	338	0.55	2
0	363	0.6	2
0	364	0.6	2
0	365	0.6	2
0	367	0.6	2
0	368	0.6	2
0	369	0.6	2
0	400	0.65	2
0	401	0.65	2
0	402	0.65	2
0	427	0.7	2
0	428	0.7	2
0	429	0.7	2
0	431	0.7	2
0	432	0.7	2
0	433	0.7	2
0	464	0.75	2
0	465	0.75	2
0	466	0.75	2
0	491	0.8	2
0	492	0.8	2
0	493	0.8	2
0	495	0.8	2
0	496	0.8	2
0	497	0.8	2
0	528	0.85	2
0	529	0.85	2
0	530	0.85	2
0	555	0.9	2
0	556	0.9	2
0	557	0.9	2
0	559	0.9	2
0	560	0.9	2
0	561	0.9	2
0	592	0.95	2
0	593	0.95	2
0	594	0.95	2
0	619	1	2
0	620	1	2
0	621	1	2
0	623	1	2
0	624	1	2
0	625	1	2
0	656	1.05	2
0	657	1.05	2
0	658	1.05	2
0	686	1.1	2
0	687	1.1	2
0	688	1.1	2
0	690	1.1	2
0	691	1.1	2
0	692	1.1	2
0	864	1.15	2
0	865	1.15	2
0	866	1.15	2
0	891	1.2	2
0	892	1.2	2
0	893	1.2	2
0	895	1.2	2
0	896	1.2	2
0	897	1.2	2
0	928	1.25	2
0	929	1.25	2
0	930	1.25	2
0	955	1.3	2
0	956	1.3	2
0	957	1.3	2
0	959	1.3	2
0	960	1.3	2
0	961	1.3	2
0	992	1.35	2
0	993	1.35	2
0	994	1.35	2
0	1019	1.4	2
0	1020	1.4	2
0	1021	1.4	2
0	1023	1.4	2
0	1024	1.4	2
0	1025	1.4	2
0	1056	1.45	2
0	1057	1.45	2
0	1058	1.45	2
0	1083	1.5	2
0	1084	1.5	2
0	1085	1.5	2
0	1087	1.5	2
0	1088	1.5	2
0	1089	1.5	2
0	1120	1.55	2
0	1121	1.55	2
0	1122	1.55	2
0	1147	1.6	2
0	1148	1.6	2
0	1149	1.6	2
0	1151	1.6	2
0	1152	1.6	2
0	1153	1.6	2
0	1184	1.65	2
0	1185	1.65	2
0	1186	1.65	2
0	1349	1.7	2
0	1350	1.7	2
0	1351	1.7	2
0	1353	1.7	2
0	1354	1.7	2
0	1355	1.7	2
0	1386	1.75	2
0	1387	1.75	2
0	1388	1.75	2
0	1413	1.8	2
0	1414	1.8	2
0	1415	1.8	2
0	1417	1.8	2
0	1418	1.8	2
0	1419	1.8	2
0	1450	1.85	2
0	1451	1.85	2
0	1452	1.85	2
0	1477	1.9	2
0	1478	1.9	2
0	1479	1.9	2
0	1481	1.9	2
0	1482	1.9	2
0	1483	1.9	2
0	1514	1.95	2
0	1515	1.95	2
0	1516	1.95	2
0	1541	2	2
0	1542	2	2
0	1543	2	2
0	1545	2	2
0	1546	2	2
0	1547	2	2
0	1578	2.05	2
0	1579	2.05	2
0	1580	2.05	2
0	1608	2.1	2
0	1609	2.1	2
0	1610	2.1	2
0	1612	2.1	2
0	1613	2.1	2
0	1614	2.1	2
0	1648	2.15	2
0	1649	2.15	2
0	1650	2.15	2
0	1675	2.2	2
0	1676	2.2	2
0	1677	2.2	2
0	1679	2.2	2
0	1680	2.2	2
0	1681	2.2	2
0	1850	2.25	2
0	1851	2.25	2
0	1852	2.25	2
0	1877	2.3	2
0	1878	2.3	2
0	1879	2.3	2
0	1881	2.3	2
0	1882	2.3	2
0	1883	2.3	2
0	1914	2.35	2
0	1915	2.35	2
0	1916	2.35	2
0	1941	2.4	2
0	1942	2.4	2
0	1943	2.4	2
0	1945	2.4	2
0	1946	2.4	2
0	1947	2.4	2
0	1978	2.45	2
0	1979	2.45	2
0	1980	2.45	2
0	2005	2.5	2
0	2006	2.5	2
0	2007	2.5	2
0	2009	2.5	2
0	2010	2.5	2
0	2011	2.5	2
0	2042	2.55	2
0	2043	2.55	2
0	2044	2.55	2
0	2069	2.6	2
0	2070	2.6	2
0	2071	2.6	2
0	2073	2.6	2
0	2074	2.6	2
0	2075	2.6	2
0	2106	2.65	2
0	2107	2.65	2
0	2108	2.65	2
0	2133	2.7	2
0	2134	2.7	2
0	2135	2.7	2
0	2137	2.7	2
0	2138	2.7	2
0	2139	2.7	2
0	2170	2.75	2
0	2171	2.75	2
0	2172	2.75	2
0	2335	2.8	2
0	2336	2.8	2
0	2337	2.8	2
0	2339	2.8	2
0	2340	2.8	2
0	2341	2.8	2
0	2372	2.85	2
0	2373	2.85	2
0	2374	2.85	2
0	2399	2.9	2
0	2400	2.9	2
0	2401	2.9	2
0	2403	2.9	2
0	2404	2.9	2
0	2405	2.9	2
0	2436	2.95	2
0	2437	2.95	2
0	2438	2.95	2
0	2463	3	2
0	2464	3	2
0	2465	3	2
0	2467	3	2
0	2468	3	2
0	2469	3	2
0	2500	3.05	2
0	2501	3.05	2
0	2502	3.05	2
0	2530	3.1	2
0	2531	3.1	2
0	2532	3.1	2
0	2534	3.1	2
0	2535	3.1	2
0	2536	3.1	2
0	2570	3.15	2
0	2571	3.15	2
0	2572	3.15	2
0	2597	3.2	2
0	2598	3.2	2
0	2599	3.2	2
0	2601	3.2	2
0	2602	3.2	2
0	2603	3.2	2
0	2634	3.25	2
0	2635	3.25	2
0	2636	3.25	2
0	2661	3.3	2
0	2662	3.3	2
0	2663	3.3	2
0	2665	3.3	2
0	2666	3.3	2
0	2667	3.3	2
0	2836	3.35	2
0	2837	3.35	2
0	2838	3.35	2
0	2863	3.4	2
0	2864	3.4	2
0	2865	3.4	2
0	2867	3.4	2
0	2868	3.4	2
0	2869	3.4	2
0	2900	3.45	2
0	2901	3.45	2
0	2902	3.45	2
0	2927	3.5	2
0	2928	3.5	2
0	2929	3.5	2
0	2931	3.5	2
0	2932	3.5	2
0	2933	3.5	2
0	2964	3.55	2
0	2965	3.55	2
0	2966	3.55	2
0	2991	3.6	2
0	2992	3.6	2
0	2993	3.6	2
0	2995	3.6	2
0	2996	3.6	2
0	2997	3.6	2
0	3028	3.65	2
0	3029	3.65	2
0	3030	3.65	2
0	3055	3.7	2
0	3056	3.7	2
0	3057	3.7	2
0	3059	3.7	2
0	3060	3.7	2
0	3061	3.7	2
0	3092	3.75	2
0	3093	3.75	2
0	3094	3.75	2
0	3119	3.8	2
0	3120	3.8	2
0	3121	3.8	2
0	3123	3.8	2
0	3124	3.8	2
0	3125	3.8	2
0	3156	3.85	2
0	3157	3.85	2
0	3158	3.85	2
0	3315	3.9	2
0	3316	3.9	2
0	3317	3.9	2
0	3319	3.9	2
0	3320	3.9	2
0	3321	3.9	2
0	3352	3.95	2
0	3353	3.95	2
0	3354	3.95	2
0	3379	4	2
0	3380	4	2
0	3381	4	2
0	3383	4	2
0	3384	4	2
0	3385	4	2
0	3416	4.05	2
0	3417	4.05	2
0	3418	4.05	2
0	3446	4.1	2
0	3447	4.1	2
0	3448	4.1	2
0	3450	4.1	2
0	3451	4.1	2
0	3452	4.1	2
0	3486	4.15	2
0	3487	4.15	2
0	3488	4.15	2
0	3513	4.2	2
0	3514	4.2	2
0	3515	4.2	2
0	3517	4.2	2
0	3518	4.2	2
0	3519	4.2	2
0	3550	4.25	2
0	3551	4.25	2
0	3552	4.25	2
0	3577	4.3	2
0	3578	4.3	2
0	3579	4.3	2
0	3581	4.3	2
0	3582	4.3	2
0	3583	4.3	2
0	3614	4.35	2
0	3615	4.35	2
0	3616	4.35	2
0	3641	4.4	2
0	3642	4.4	2
0	3643	4.4	2
0	3645	4.4	2
0	3646	4.4	2
0	3647	4.4	2
0	3816	4.45	2
0	3817	4.45	2
0	3818	4.45	2
0	3843	4.5	2
0	3844	4.5	2
0	3845	4.5	2
0	3847	4.5	2
0	3848	4.5	2
0	3849	4.5	2
0	3880	4.55	2
0	3881	4.55	2
0	3882	4.55	2
0	3907	4.6	2
0	3908	4.6	2
0	3909	4.6	2
0	3911	4.6	2
0	3912	4.6	2
0	3913	4.6	2
0	3944	4.65	2
0	3945	4.65	2
0	3946	4.65	2
0	3971	4.7	2
0	3972	4.7	2
0	3973	4.7	2
0	3975	4.7	2
0	3976	4.7	2
0	3977	4.7	2
0	4008	4.75	2
0	4009	4.75	2
0	4010	4.75	2
0	4035	4.8	2
0	4036	4.8	2
0	4037	4.8	2
0	4039	4.8	2
0	4040	4.8	2
0	4041	4.8	2
0	4072	4.85	2
0	4073	4.85	2
0	4074	4.85	2
0	4099	4.9	2
0	4100	4.9	2
0	4101	4.9	2
0	4103	4.9	2
0	4104	4.9	2
0	4105	4.9	2
0	4136	4.95	2
0	4137	4.95	2
0	4138	4.95	2
0	4304	5	2
0	4305	5	2
0	4306	5	2
0	4308	5	2
0	4309	5	2
0	4310	5	2
0	4341	5.05	2
0	4342	5.05	2
0	4343	5.05	2
0	4371	5.1	2
0	4372	5.1	2
0	4373	5.1	2
0	4375	5.1	2
0	4376	5.1	2
0	4377	5.1	2
0	4412	5.15	2
0	4413	5.15	2
0	4414	5.15	2
0	4439	5.2	2
0	4440	5.2	2
0	4441	5.2	2
0	4443	5.2	2
0	4444	5.2	2
0	4445	5.2	2
0	4476	5.25	2
0	4477	5.25	2
0	4478	5.25	2
0	4503	5.3	2
0	4504	5.3	2
0	4505	5.3	2
0	4507	5.3	2
0	4508	5.3	2
0	4509	5.3	2
0	4540	5.35	2
0	4541	5.35	2
0	4542	5.35	2
0	4567	5.4	2
0	4568	5.4	2
0	4569	5.4	2
0	4571	5.4	2
0	4572	5.4	2
0	4573	5.4	2
0	4604	5.45	2
0	4605	5.45	2
0	4606	5.45	2
0	4634	5.5	2
0	4635	5.5	2
0	4636	5.5	2
0	4638	5.5	2
0	4639	5.5	2
0	4640	5.5	2
0	4833	5.55	2
0	4834	5.55	2
0	4835	5.55	2
0	5012	5.6	2
0	5013	5.6	2
0	5014	5.6	2
0	5016	5.6	2
0	5017	5.6	2
0	5018	5.6	2
0	5125	5.65	2
0	5126	5.65	2
0	5127	5.65	2
0	5152	5.7	2
0	5153	5.7	2
0	5154	5.7	2
0	5156	5.7	2
0	5157	5.7	2
0	5158	5.7	2
0	5189	5.75	2
0	5190	5.75	2
0	5191	5.75	2
0	5216	5.8	2
0	5217	5.8	2
0	5218	5.8	2
0	5220	5.8	2
0	5221	5.8	2
0	5222	5.8	2
0	5253	5.85	2
0	5254	5.85	2
0	5255	5.85	2
0	5280	5.9	2
0	5281	5.9	2
0	5282	5.9	2
0	5284	5.9	2
0	5285	5.9	2
0	5286	5.9	2
0	5317	5.95	2
0	5318	5.95	2
0	5319	5.95	2
0	5347	6	2
0	5348	6	2
0	5349	6	2
0	5351	6	2
0	5352	6	2
0	5353	6	2
0	5384	6.05	2
0	5385	6.05	2
0	5386	6.05	2
0	5552	6.1	2
0	5553	6.1	2
0	5554	6.1	2
0	5556	6.1	2
0	5557	6.1	2
0	5558	6.1	2
0	5593	6.15	2
0	5594	6.15	2
0	5595	6.15	2
0	5620	6.2	2
0	5621	6.2	2
0	5622	6.2	2
0	5624	6.2	2
0	5625	6.2	2
0	5626	6.2	2
0	5657	6.25	2
0	5658	6.25	2
0	5659	6.25	2
0	5684	6.3	2
0	5685	6.3	2
0	5686	6.3	2
0	5688	6.3	2
0	5689	6.3	2
0	5690	6.3	2
0	5721	6.35	2
0	5722	6.35	2
0	5723	6.35	2
0	5748	6.4	2
0	5749	6.4	2
0	5750	6.4	2
0	5752	6.4	2
0	5753	6.4	2
0	5754	6.4	2
0	5785	6.45	2
0	5786	6.45	2
0	5787	6.45	2
0	5815	6.5	2
0	5816	6.5	2
0	5817	6.5	2
0	5819	6.5	2
0	5820	6.5	2
0	5821	6.5	2
0	5852	6.55	2
0	5853	6.55	2
0	5854	6.55	2
0	5879	6.6	2
0	5880	6.6	2
0	5881	6.6	2
0	5883	6.6	2
0	5884	6.6	2
0	5885	6.6	2
0	6058	6.65	2
0	6059	6.65	2
0	6060	6.65	2
0	6123	6.7	2
0	6124	6.7	2
0	6125	6.7	2
0	6127	6.7	2
0	6128	6.7	2
0	6129	6.7	2
0	6160	6.75	2
0	6161	6.75	2
0	6162	6.75	2
0	6187	6.8	2
0	6188	6.8	2
0	6189	6.8	2
0	6191	6.8	2
0	6192	6.8	2
0	6193	6.8	2
0	6224	6.85	2
0	6225	6.85	2
0	6226	6.85	2
0	6251	6.9	2
0	6252	6.9	2
0	6253	6.9	2
0	6255	6.9	2
0	6256	6.9	2
0	6257	6.9	2
0	6288	6.95	2
0	6289	6.95	2
0	6290	6.95	2
0	6315	7	2
0	6316	7	2
0	6317	7	2
0	6319	7	2
0	6320	7	2
0	6321	7	2
0	6352	7.05	2
0	6353	7.05	2
0	6354	7.05	2
0	6382	7.1	2
0	6383	7.1	2
0	6384	7.1	2
0	6386	7.1	2
0	6387	7.1	2
0	6388	7.1	2
0	6423	7.15	2
0	6424	7.15	2
0	6425	7.15	2
0	6592	7.2	2
0	6593	7.2	2
0	6594	7.2	2
0	6596	7.2	2
0	6597	7.2	2
0	6598	7.2	2
0	6667	7.25	2
0	6668	7.25	2
0	6669	7.25	2
0	6694	7.3	2
0	6695	7.3	2
0	6696	7.3	2
0	6698	7.3	2
0	6699	7.3	2
0	6700	7.3	2
0	6731	7.35	2
0	6732	7.35	2
0	6733	7.35	2
0	6758	7.4	2
0	6759	7.4	2
0	6760	7.4	2
0	6762	7.4	2
0	6763	7.4	2
0	6764	7.4	2
0	6795	7.45	2
0	6796	7.45	2
0	6797	7.45	2
0	6822	7.5	2
0	6823	7.5	2
0	6824	7.5	2
0	6826	7.5	2
0	6827	7.5	2
0	6828	7.5	2
0	6859	7.55	2
0	6860	7.55	2
0	6861	7.55	2
0	6886	7.6	2
0	6887	7.6	2
0	6888	7.6	2
0	6890	7.6	2
0	6891	7.6	2
0	6892	7.6	2
0	6923	7.65	2
0	6924	7.65	2
0	6925	7.65	2
0	6950	7.7	2
0	6951	7.7	2
0	6952	7.7	2
0	6954	7.7	2
0	6955	7.7	2
0	6956	7.7	2
0	7125	7.75	2
0	7126	7.75	2
0	7127	7.75	2
0	7152	7.8	2
0	7153	7.8	2
0	7154	7.8	2
0	7156	7.8	2
0	7157	7.8	2
0	7158	7.8	2
0	7189	7.85	2
0	7190	7.85	2
0	7191	7.85	2
0	7216	7.9	2
0	7217	7.9	2
0	7218	7.9	2
0	7220	7.9	2
0	7221	7.9	2
0	7222	7.9	2
0	7253	7.95	2
0	7254	7.95	2
0	7255	7.95	2
0	7280	8	2
0	7281	8	2
0	7282	8	2
0	7284	8	2
0	7285	8	2
0	7286	8	2
0	7317	8.05	2
0	7318	8.05	2
0	7319	8.05	2
0	7347	8.1	2
0	7348	8.1	2
0	7349	8.1	2
0	7351	8.1	2
0	7352	8.1	2
0	7353	8.1	2
0	7388	8.15	2
0	7389	8.15	2
0	7390	8.15	2
0	7415	8.2	2
0	7416	8.2	2
0	7417	8.2	2
0	7419	8.2	2
0	7420	8.2	2
0	7421	8.2	2
0	7452	8.25	2
0	7453	8.25	2
0	7454	8.25	2
0	7621	8.3	2
0	7622	8.3	2
0	7623	8.3	2
0	7625	8.3	2
0	7626	8.3	2
0	7627	8.3	2
0	7696	8.35	2
0	7697	8.35	2
0	7698	8.35	2
0	7723	8.4	2
0	7724	8.4	2
0	7725	8.4	2
0	7727	8.4	2
0	7728	8.4	2
0	7729	8.4	2
0	7760	8.45	2
0	7761	8.45	2
0	7762	8.45	2
0	7787	8.5	2
0	7788	8.5	2
0	7789	8.5	2
0	7791	8.5	2
0	7792	8.5	2
0	7793	8.5	2
0	7824	8.55	2
0	7825	8.55	2
0	7826	8.55	2
0	7851	8.6	2
0	7852	8.6	2
0	7853	8.6	2
0	7855	8.6	2
0	7856	8.6	2
0	7857	8.6	2
0	7888	8.65	2
0	7889	8.65	2
0	7890	8.65	2
0	7915	8.7	2
0	7916	8.7	2
0	7917	8.7	2
0	7919	8.7	2
0	7920	8.7	2
0	7921	8.7	2
0	7952	8.75	2
0	7953	8.75	2
0	7954	8.75	2
0	7979	8.8	2
0	7980	8.8	2
0	7981	8.8	2
0	7983	8.8	2
0	7984	8.8	2
0	7985	8.8	2
0	8148	8.85	2
0	8149	8.85	2
0	8150	8.85	2
0	8175	8.9	2
0	8176	8.9	2
0	8177	8.9	2
0	8179	8.9	2
0	8180	8.9	2
0	8181	8.9	2
0	8212	8.95	2
0	8213	8.95	2
0	8214	8.95	2
0	8239	9	2
0	8240	9	2
0	8241	9	2
0	8243	9	2
0	8244	9	2
0	8245	9	2
0	8276	9.05	2
0	8277	9.05	2
0	8278	9.05	2
0	8306	9.1	2
0	8307	9.1	2
0	8308	9.1	2
0	8310	9.1	2
0	8311	9.1	2
0	8312	9.1	2
0	8347	9.15	2
0	8348	9.15	2
0	8349	9.15	2
0	8374	9.2	2
0	8375	9.2	2
0	8376	9.2	2
0	8378	9.2	2
0	8379	9.2	2
0	8380	9.2	2
0	8411	9.25	2
0	8412	9.25	2
0	8413	9.25	2
0	8438	9.3	2
0	8439	9.3	2
0	8440	9.3	2
0	8442	9.3	2
0	8443	9.3	2
0	8444	9.3	2
0	8475	9.35	2
0	8476	9.35	2
0	8477	9.35	2
0	8644	9.4	2
0	8645	9.4	2
0	8646	9.4	2
0	8648	9.4	2
0	8649	9.4	2
0	8650	9.4	2
0	8719	9.45	2
0	8720	9.45	2
0	8721	9.45	2
0	8746	9.5	2
0	8747	9.5	2
0	8748	9.5	2
0	8750	9.5	2
0	8751	9.5	2
0	8752	9.5	2
0	8783	9.55	2
0	8784	9.55	2
0	8785	9.55	2
0	8810	9.6	2
0	8811	9.6	2
0	8812	9.6	2
0	8814	9.6	2
0	8815	9.6	2
0	8816	9.6	2
0	8847	9.65	2
0	8848	9.65	2
0	8849	9.65	2
0	8874	9.7	2
0	8875	9.7	2
0	8876	9.7	2
0	8878	9.7	2
0	8879	9.7	2
0	8880	9.7	2
0	8911	9.75	2
0	8912	9.75	2
0	8913	9.75	2
0	8938	9.8	2
0	8939	9.8	2
0	8940	9.8	2
0	8942	9.8	2
0	8943	9.8	2
0	8944	9.8	2
0	8975	9.85	2
0	8976	9.85	2
0	8977	9.85	2
0	9002	9.9	2
0	9003	9.9	2
0	9004	9.9	2
0	9006	9.9	2
0	9007	9.9	2
0	9008	9.9	2
0	9153	9.95	2
0	9154	9.95	2
0	9155	9.95	2
0	9180	10	2
0	9181	10	2
0	9182	10	2
0	9184	10	2
0	9185	10	2
0	9186	10	2
0	9217	10.05	2
0	9218	10.05	2
0	9219	10.05	2
0	9247	10.1	2
0	9248	10.1	2
0	9249	10.1	2
0	9251	10.1	2
0	9252	10.1	2
0	9253	10.1	2
0	9288	10.15	2
0	9289	10.15	2
0	9290	10.15	2
0	9315	10.2	2
0	9316	10.2	2
0	9317	10.2	2
0	9319	10.2	2
0	9320	10.2	2
0	9321	10.2	2
0	9352	10.25	2
0	9353	10.25	2
0	9354	10.25	2
0	9379	10.3	2
0	9380	10.3	2
0	9381	10.3	2
0	9383	10.3	2
0	9384	10.3	2
0	9385	10.3	2
0	9416	10.35	2
0	9417	10.35	2
0	9418	10.35	2
0	9443	10.4	2
0	9444	10.4	2
0	9445	10.4	2
0	9447	10.4	2
0	9448	10.4	2
0	9449	10.4	2
0	9480	10.45	2
0	9481	10.45	2
0	9482	10.45	2
0	9647	10.5	2
0	9648	10.5	2
0	9649	10.5	2
0	9651	10.5	2
0	9652	10.5	2
0	9653	10.5	2
0	9701	10.55	2
0	9702	10.55	2
0	9703	10.55	2
0	9728	10.6	2
0	9729	10.6	2
0	9730	10.6	2
0	9732	10.6	2
0	9733	10.6	2
0	9734	10.6	2
0	9788	10.65	2
0	9789	10.65	2
0	9790	10.65	2
0	9815	10.7	2
0	9816	10.7	2
0	9817	10.7	2
0	9819	10.7	2
0	9820	10.7	2
0	9821	10.7	2
0	9852	10.75	2
0	9853	10.75	2
0	9854	10.75	2
0	9879	10.8	2
0	9880	10.8	2
0	9881	10.8	2
0	9883	10.8	2
0	9884	10.8	2
0	9885	10.8	2
0	9916	10.85	2
0	9917	10.85	2
0	9918	10.85	2
0	9943	10.9	2
0	9944	10.9	2
0	9945	10.9	2
0	9947	10.9	2
0	9948	10.9	2
0	9949	10.9	2
0	9980	10.95	2
0	9981	10.95	2
0	9982	10.95	2
0	10007	11	2
0	10008	11	2
0	10009	11	2
0	10011	11	2
0	10012	11	2
0	10013	11	2
0	10159	11.05	2
0	10160	11.05	2
0	10161	11.05	2
0	10189	11.1	2
0	10190	11.1	2
0	10191	11.1	2
0	10193	11.1	2
0	10194	11.1	2
0	10195	11.1	2
0	10230	11.15	2
0	10231	11.15	2
0	10232	11.15	2
0	10280	11.2	2
0	10281	11.2	2
0	10282	11.2	2
0	10284	11.2	2
0	10285	11.2	2
0	10286	11.2	2
0	10317	11.25	2
0	10318	11.25	2
0	10319	11.25	2
0	10344	11.3	2
0	10345	11.3	2
0	10346	11.3	2
0	10348	11.3	2
0	10349	11.3	2
0	10350	11.3	2
0	10381	11.35	2
0	10382	11.35	2
0	10383	11.35	2
0	10408	11.4	2
0	10409	11.4	2
0	10410	11.4	2
0	10412	11.4	2
0	10413	11.4	2
0	10414	11.4	2
0	10445	11.45	2
0	10446	11.45	2
0	10447	11.45	2
0	10475	11.5	2
0	10476	11.5	2
0	10477	11.5	2
0	10479	11.5	2
0	10480	11.5	2
0	10481	11.5	2
0	10512	11.55	2
0	10513	11.55	2
0	10514	11.55	2
0	10640	11.6	2
0	10641	11.6	2
0	10642	11.6	2
0	10644	11.6	2
0	10645	11.6	2
0	10646	11.6	2
0	10694	11.65	2
0	10695	11.65	2
0	10696	11.65	2
0	10721	11.7	2
0	10722	11.7	2
0	10723	11.7	2
0	10725	11.7	2
0	10726	11.7	2
0	10727	11.7	2
0	10758	11.75	2
0	10759	11.75	2
0	10760	11.75	2
0	10785	11.8	2
0	10786	11.8	2
0	10787	11.8	2
0	10789	11.8	2
0	10790	11.8	2
0	10791	11.8	2
0	10822	11.85	2
0	10823	11.85	2
0	10824	11.85	2
0	10849	11.9	2
0	10850	11.9	2
0	10851	11.9	2
0	10853	11.9	2
0	10854	11.9	2
0	10855	11.9	2
0	10886	11.95	2
0	10887	11.95	2
0	10888	11.95	2
0	10913	12	2
0	10914	12	2
0	10915	12	2
0	10917	12	2
0	10918	12	2
0	10919	12	2
0	10950	12.05	2
0	10951	12.05	2
0	10952	12.05	2
0	10980	12.1	2
0	10981	12.1	2
0	10982	12.1	2
0	10984	12.1	2
0	10985	12.1	2
0	10986	12.1	2
0	11115	12.15	2
0	11116	12.15	2
0	11117	12.15	2
0	11161	12.2	2
0	11162	12.2	2
0	11163	12.2	2
0	11165	12.2	2
0	11166	12.2	2
0	11167	12.2	2
0	11198	12.25	2
0	11199	12.25	2
0	11200	12.25	2
0	11225	12.3	2
0	11226	12.3	2
0	11227	12.3	2
0	11229	12.3	2
0	11230	12.3	2
0	11231	12.3	2
0	11262	12.35	2
0	11263	12.35	2
0	11264	12.35	2
0	11289	12.4	2
0	11290	12.4	2
0	11291	12.4	2
0	11293	12.4	2
0	11294	12.4	2
0	11295	12.4	2
0	11326	12.45	2
0	11327	12.45	2
0	11328	12.45	2
0	11353	12.5	2
0	11354	12.5	2
0	11355	12.5	2
0	11357	12.5	2
0	11358	12.5	2
0	11359	12.5	2
0	11390	12.55	2
0	11391	12.55	2
0	11392	12.55	2
0	11417	12.6	2
0	11418	12.6	2
0	11419	12.6	2
0	11421	12.6	2
0	11422	12.6	2
0	11423	12.6	2
0	11454	12.65	2
0	11455	12.65	2
0	11456	12.65	2
0	11577	12.7	2
0	11578	12.7	2
0	11579	12.7	2
0	11581	12.7	2
0	11582	12.7	2
0	11583	12.7	2
0	11650	12.75	2
0	11651	12.75	2
0	11652	12.75	2
0	11700	12.8	2
0	11701	12.8	2
0	11702	12.8	2
0	11704	12.8	2
0	11705	12.8	2
0	11706	12.8	2
0	11737	12.85	2
0	11738	12.85	2
0	11739	12.85	2
0	11764	12.9	2
0	11765	12.9	2
0	11766	12.9	2
0	11768	12.9	2
0	11769	12.9	2
0	11770	12.9	2
0	11824	12.95	2
0	11825	12.95	2
0	11826	12.95	2
0	11851	13	2
0	11852	13	2
0	11853	13	2
0	11855	13	2
0	11856	13	2
0	11857	13	2
0	11888	13.05	2
0	11889	13.05	2
0	11890	13.05	2
0	11918	13.1	2
0	11919	13.1	2
0	11920	13.1	2
0	11922	13.1	2
0	11923	13.1	2
0	11924	13.1	2
0	11959	13.15	2
0	11960	13.15	2
0	11961	13.15	2
0	11986	13.2	2
0	11987	13.2	2
0	11988	13.2	2
0	11990	13.2	2
0	11991	13.2	2
0	11992	13.2	2
0	12121	13.25	2
0	12122	13.25	2
0	12123	13.25	2
0	12205	13.3	2
0	12206	13.3	2
0	12207	13.3	2
0	12209	13.3	2
0	12210	13.3	2
0	12211	13.3	2
0	12265	13.35	2
0	12266	13.35	2
0	12267	13.35	2
0	12292	13.4	2
0	12293	13.4	2
0	12294	13.4	2
0	12296	13.4	2
0	12297	13.4	2
0	12298	13.4	2
0	12329	13.45	2
0	12330	13.45	2
0	12331	13.45	2
0	12395	13.5	2
0	12396	13.5	2
0	12397	13.5	2
0	12399	13.5	2
0	12400	13.5	2
0	12401	13.5	2
0	12432	13.55	2
0	12433	13.55	2
0	12434	13.55	2
0	12459	13.6	2
0	12460	13.6	2
0	12461	13.6	2
0	12463	13.6	2
0	12464	13.6	2
0	12465	13.6	2
0	12496	13.65	2
0	12497	13.65	2
0	12498	13.65	2
0	12523	13.7	2
0	12524	13.7	2
0	12525	13.7	2
0	12527	13.7	2
0	12528	13.7	2
0	12529	13.7	2
0	12560	13.75	2
0	12561	13.75	2
0	12562	13.75	2
0	12679	13.8	2
0	12680	13.8	2
0	12681	13.8	2
0	12683	13.8	2
0	12684	13.8	2
0	12685	13.8	2
0	12716	13.85	2
0	12717	13.85	2
0	12718	13.85	2
0	12766	13.9	2
0	12767	13.9	2
0	12768	13.9	2
0	12770	13.9	2
0	12771	13.9	2
0	12772	13.9	2
0	12803	13.95	2
0	12804	13.95	2
0	12805	13.95	2
0	12830	14	2
0	12831	14	2
0	12832	14	2
0	12834	14	2
0	12835	14	2
0	12836	14	2
0	12911	14.05	2
0	12912	14.05	2
0	12913	14.05	2
0	12941	14.1	2
0	12942	14.1	2
0	12943	14.1	2
0	12945	14.1	2
0	12946	14.1	2
0	12947	14.1	2
0	12982	14.15	2
0	12983	14.15	2
0	12984	14.15	2
0	13009	14.2	2
0	13010	14.2	2
0	13011	14.2	2
0	13013	14.2	2
0	13014	14.2	2
0	13015	14.2	2
0	13046	14.25	2
0	13047	14.25	2
0	13048	14.25	2
0	13073	14.3	2
0	13074	14.3	2
0	13075	14.3	2
0	13077	14.3	2
0	13078	14.3	2
0	13079	14.3	2
0	13204	14.35	2
0	13205	14.35	2
0	13206	14.35	2
0	13250	14.4	2
0	13251	14.4	2
0	13252	14.4	2
0	13254	14.4	2
0	13255	14.4	2
0	13256	14.4	2
0	13310	14.45	2
0	13311	14.45	2
0	13312	14.45	2
0	13337	14.5	2
0	13338	14.5	2
0	13339	14.5	2
0	13341	14.5	2
0	13342	14.5	2
0	13343	14.5	2
0	13374	14.55	2
0	13375	14.55	2
0	13376	14.55	2
0	13418	14.6	2
0	13419	14.6	2
0	13420	14.6	2
0	13422	14.6	2
0	13423	14.6	2
0	13424	14.6	2
0	13455	14.65	2
0	13456	14.65	2
0	13457	14.65	2
0	13482	14.7	2
0	13483	14.7	2
0	13484	14.7	2
0	13486	14.7	2
0	13487	14.7	2
0	13488	14.7	2
0	13519	14.75	2
0	13520	14.75	2
0	13521	14.75	2
0	13546	14.8	2
0	13547	14.8	2
0	13548	14.8	2
0	13550	14.8	2
0	13551	14.8	2
0	13552	14.8	2
0	13583	14.85	2
0	13584	14.85	2
0	13585	14.85	2
0	13702	14.9	2
0	13703	14.9	2
0	13704	14.9	2
0	13706	14.9	2
0	13707	14.9	2
0	13708	14.9	2
0	13739	14.95	2
0	13740	14.95	2
0	13741	14.95	2
0	13789	15	2
0	13790	15	2
0	13791	15	2
0	13793	15	2
0	13794	15	2
0	13795	15	2
0	13826	15.05	2
0	13827	15.05	2
0	13828	15.05	2
0	13856	15.1	2
0	13857	15.1	2
0	13858	15.1	2
0	13860	15.1	2
0	13861	15.1	2
0	13862	15.1	2
0	13954	15.15	2
0	13955	15.15	2
0	13956	15.15	2
0	13989	15.2	2
0	13990	15.2	2
0	13991	15.2	2
0	13993	15.2	2
0	13994	15.2	2
0	13995	15.2	2
0	14026	15.25	2
0	14027	15.25	2
0	14028	15.25	2
0	14053	15.3	2
0	14054	15.3	2
0	14055	15.3	2
0	14057	15.3	2
0	14058	15.3	2
0	14059	15.3	2
0	14090	15.35	2
0	14091	15.35	2
0	14092	15.35	2
0	14117	15.4	2
0	14118	15.4	2
0	14119	15.4	2
0	14121	15.4	2
0	14122	15.4	2
0	14123	15.4	2
0	14248	15.45	2
0	14249	15.45	2
0	14250	15.45	2
0	14294	15.5	2
0	14295	15.5	2
0	14296	15.5	2
0	14298	15.5	2
0	14299	15.5	2
0	14300	15.5	2
0	14354	15.55	2
0	14355	15.55	2
0	14356	15.55	2
0	14381	15.6	2
0	14382	15.6	2
0	14383	15.6	2
0	14385	15.6	2
0	14386	15.6	2
0	14387	15.6	2
0	14418	15.65	2
0	14419	15.65	2
0	14420	15.65	2
0	14468	15.7	2
0	14469	15.7	2
0	14470	15.7	2
0	14472	15.7	2
0	14473	15.7	2
0	14474	15.7	2
0	14505	15.75	2
0	14506	15.75	2
0	14507	15.75	2
0	14532	15.8	2
0	14533	15.8	2
0	14534	15.8	2
0	14536	15.8	2
0	14537	15.8	2
0	14538	15.8	2
0	14569	15.85	2
0	14570	15.85	2
0	14571	15.85	2
0	14596	15.9	2
0	14597	15.9	2
0	14598	15.9	2
0	14600	15.9	2
0	14601	15.9	2
0	14602	15.9	2
0	14633	15.95	2
0	14634	15.95	2
0	14635	15.95	2
0	14752	16	2
0	14753	16	2
0	14754	16	2
0	14756	16	2
0	14757	16	2
0	14758	16	2
0	14789	16.05	2
0	14790	16.05	2
0	14791	16.05	2
0	14842	16.1	2
0	14843	16.1	2
0	14844	16.1	2
0	14846	16.1	2
0	14847	16.1	2
0	14848	16.1	2
0	14883	16.15	2
0	14884	16.15	2
0	14885	16.15	2
0	14910	16.2	2
0	14911	16.2	2
0	14912	16.2	2
0	14914	16.2	2
0	14915	16.2	2
0	14916	16.2	2
0	14991	16.25	2
0	14992	16.25	2
0	14993	16.25	2
0	15018	16.3	2
0	15019	16.3	2
0	15020	16.3	2
0	15022	16.3	2
0	15023	16.3	2
0	15024	16.3	2
0	15055	16.35	2
0	15056	16.35	2
0	15057	16.35	2
0	15082	16.4	2
0	15083	16.4	2
0	15084	16.4	2
0	15086	16.4	2
0	15087	16.4	2
0	15088	16.4	2
0	15119	16.45	2
0	15120	16.45	2
0	15121	16.45	2
0	15149	16.5	2
0	15150	16.5	2
0	15151	16.5	2
0	15153	16.5	2
0	15154	16.5	2
0	15155	16.5	2
0	15280	16.55	2
0	15281	16.55	2
0	15282	16.55	2
0	15326	16.6	2
0	15327	16.6	2
0	15328	16.6	2
0	15330	16.6	2
0	15331	16.6	2
0	15332	16.6	2
0	15386	16.65	2
0	15387	16.65	2
0	15388	16.65	2
0	15413	16.7	2
0	15414	16.7	2
0	15415	16.7	2
0	15417	16.7	2
0	15418	16.7	2
0	15419	16.7	2
0	15450	16.75	2
0	15451	16.75	2
0	15452	16.75	2
0	15500	16.8	2
0	15501	16.8	2
0	15502	16.8	2
0	15504	16.8	2
0	15505	16.8	2
0	15506	16.8	2
0	15537	16.85	2
0	15538	16.85	2
0	15539	16.85	2
0	15564	16.9	2
0	15565	16.9	2
0	15566	16.9	2
0	15568	16.9	2
0	15569	16.9	2
0	15570	16.9	2
0	15601	16.95	2
0	15602	16.95	2
0	15603	16.95	2
0	15628	17	2
0	15629	17	2
0	15630	17	2
0	15632	17	2
0	15633	17	2
0	15634	17	2
0	15665	17.05	2
0	15666	17.05	2
0	15667	17.05	2
0	15787	17.1	2
0	15788	17.1	2
0	15789	17.1	2
0	15791	17.1	2
0	15792	17.1	2
0	15793	17.1	2
0	15828	17.15	2
0	15829	17.15	2
0	15830	17.15	2
0	15872	17.2	2
0	15873	17.2	2
0	15874	17.2	2
0	15876	17.2	2
0	15877	17.2	2
0	15878	17.2	2
0	15909	17.25	2
0	15910	17.25	2
0	15911	17.25	2
0	15936	17.3	2
0	15937	17.3	2
0	15938	17.3	2
0	15940	17.3	2
0	15941	17.3	2
0	15942	17.3	2
0	16017	17.35	2
0	16018	17.35	2
0	16019	17.35	2
0	16044	17.4	2
0	16045	17.4	2
0	16046	17.4	2
0	16048	17.4	2
0	16049	17.4	2
0	16050	17.4	2
0	16081	17.45	2
0	16082	17.45	2
0	16083	17.45	2
0	16108	17.5	2
0	16109	17.5	2
0	16110	17.5	2
0	16112	17.5	2
0	16113	17.5	2
0	16114	17.5	2
0	16145	17.55	2
0	16146	17.55	2
0	16147	17.55	2
0	16172	17.6	2
0	16173	17.6	2
0	16174	17.6	2
0	16176	17.6	2
0	16177	17.6	2
0	16178	17.6	2
0	16303	17.65	2
0	16304	17.65	2
0	16305	17.65	2
0	16349	17.7	2
0	16350	17.7	2
0	16351	17.7	2
0	16353	17.7	2
0	16354	17.7	2
0	16355	17.7	2
0	16409	17.75	2
0	16410	17.75	2
0	16411	17.75	2
0	16436	17.8	2
0	16437	17.8	2
0	16438	17.8	2
0	16440	17.8	2
0	16441	17.8	2
0	16442	17.8	2
0	16473	17.85	2
0	16474	17.85	2
0	16475	17.85	2
0	16523	17.9	2
0	16524	17.9	2
0	16525	17.9	2
0	16527	17.9	2
0	16528	17.9	2
0	16529	17.9	2
0	16560	17.95	2
0	16561	17.95	2
0	16562	17.95	2
0	16587	18	2
0	16588	18	2
0	16589	18	2
0	16591	18	2
0	16592	18	2
0	16593	18	2
0	16624	18.05	2
0	16625	18.05	2
0	16626	18.05	2
0	16654	18.1	2
0	16655	18.1	2
0	16656	18.1	2
0	16658	18.1	2
0	16659	18.1	2
0	16660	18.1	2
0	16695	18.15	2
0	16696	18.15	2
0	16697	18.15	2
0	16816	18.2	2
0	16817	18.2	2
0	16818	18.2	2
0	16820	18.2	2
0	16821	18.2	2
0	16822	18.2	2
0	16872	18.25	2
0	16873	18.25	2
0	16874	18.25	2
0	16916	18.3	2
0	16917	18.3	2
0	16918	18.3	2
0	16920	18.3	2
0	16921	18.3	2
0	16922	18.3	2
0	16953	18.35	2
0	16954	18.35	2
0	16955	18.35	2
0	16980	18.4	2
0	16981	18.4	2
0	16982	18.4	2
0	16984	18.4	2
0	16985	18.4	2
0	16986	18.4	2
0	17022	18.45	2
0	17023	18.45	2
0	17024	18.45	2
0	17049	18.5	2
0	17050	18.5	2
0	17051	18.5	2
0	17053	18.5	2
0	17054	18.5	2
0	17055	18.5	2
0	17086	18.55	2
0	17087	18.55	2
0	17088	18.55	2
0	17113	18.6	2
0	17114	18.6	2
0	17115	18.6	2
0	17117	18.6	2
0	17118	18.6	2
0	17119	18.6	2
0	17150	18.65	2
0	17151	18.65	2
0	17152	18.65	2
0	17177	18.7	2
0	17178	18.7	2
0	17179	18.7	2
0	17181	18.7	2
0	17182	18.7	2
0	17183	18.7	2
0	17306	18.75	2
0	17307	18.75	2
0	17308	18.75	2
0	17333	18.8	2
0	17334	18.8	2
0	17335	18.8	2
0	17337	18.8	2
0	17338	18.8	2
0	17339	18.8	2
0	17370	18.85	2
0	17371	18.85	2
0	17372	18.85	2
0	17397	18.9	2
0	17398	18.9	2
0	17399	18.9	2
0	17401	18.9	2
0	17402	18.9	2
0	17403	18.9	2
0	17434	18.95	2
0	17435	18.95	2
0	17436	18.95	2
0	17461	19	2
0	17462	19	2
0	17463	19	2
0	17465	19	2
0	17466	19	2
0	17467	19	2
0	17498	19.05	2
0	17499	19.05	2
0	17500	19.05	2
0	17528	19.1	2
0	17529	19.1	2
0	17530	19.1	2
0	17532	19.1	2
0	17533	19.1	2
0	17534	19.1	2
0	17569	19.15	2
0	17570	19.15	2
0	17571	19.15	2
0	17596	19.2	2
0	17597	19.2	2
0	17598	19.2	2
0	17600	19.2	2
0	17601	19.2	2
0	17602	19.2	2
0	17633	19.25	2
0	17634	19.25	2
0	17635	19.25	2
0	17758	19.3	2
0	17759	19.3	2
0	17760	19.3	2
0	17762	19.3	2
0	17763	19.3	2
0	17764	19.3	2
0	17850	19.35	2
0	17851	19.35	2
0	17852	19.35	2
0	17877	19.4	2
0	17878	19.4	2
0	17879	19.4	2
0	17881	19.4	2
0	17882	19.4	2
0	17883	19.4	2
0	17914	19.45	2
0	17915	19.45	2
0	17916	19.45	2
0	17941	19.5	2
0	17942	19.5	2
0	17943	19.5	2
0	17945	19.5	2
0	17946	19.5	2
0	17947	19.5	2
0	17978	19.55	2
0	17979	19.55	2
0	17980	19.55	2
0	18005	19.6	2
0	18006	19.6	2
0	18007	19.6	2
0	18009	19.6	2
0	18010	19.6	2
0	18011	19.6	2
0	18042	19.65	2
0	18043	19.65	2
0	18044	19.65	2
0	18069	19.7	2
0	18070	19.7	2
0	18071	19.7	2
0	18073	19.7	2
0	18074	19.7	2
0	18075	19.7	2
0	18106	19.75	2
0	18107	19.75	2
0	18108	19.75	2
0	18133	19.8	2
0	18134	19.8	2
0	18135	19.8	2
0	18137	19.8	2
0	18138	19.8	2
0	18139	19.8	2
0	18266	19.85	2
0	18267	19.85	2
0	18268	19.85	2
0	18348	19.9	2
0	18349	19.9	2
0	18350	19.9	2
0	18352	19.9	2
0	18353	19.9	2
0	18354	19.9	2
0	18385	19.95	2
0	18386	19.95	2
0	18387	19.95	2
0	18412	20	2
0	18413	20	2
0	18414	20	2
0	18416	20	2
0	18417	20	2
0	18418	20	2
0	18472	20.05	2
0	18473	20.05	2
0	18474	20.05	2
0	18502	20.1	2
0	18503	20.1	2
0	18504	20.1	2
0	18506	20.1	2
0	18507	20.1	2
0	18508	20.1	2
0	18543	20.15	2
0	18544	20.15	2
0	18545	20.15	2
0	18570	20.2	2
0	18571	20.2	2
0	18572	20.2	2
0	18574	20.2	2
0	18575	20.2	2
0	18576	20.2	2
0	18607	20.25	2
0	18608	20.25	2
0	18609	20.25	2
0	18634	20.3	2
0	18635	20.3	2
0	18636	20.3	2
0	18638	20.3	2
0	18639	20.3	2
0	18640	20.3	2
0	18671	20.35	2
0	18672	20.35	2
0	18673	20.35	2
0	18792	20.4	2
0	18793	20.4	2
0	18794	20.4	2
0	18796	20.4	2
0	18797	20.4	2
0	18798	20.4	2
0	18871	20.45	2
0	18872	20.45	2
0	18873	20.45	2
0	18898	20.5	2
0	18899	20.5	2
0	18900	20.5	2
0	18902	20.5	2
0	18903	20.5	2
0	18904	20.5	2
0	18935	20.55	2
0	18936	20.55	2
0	18937	20.55	2
0	19006	20.6	2
0	19007	20.6	2
0	19008	20.6	2
0	19010	20.6	2
0	19011	20.6	2
0	19012	20.6	2
0	19043	20.65	2
0	19044	20.65	2
0	19045	20.65	2
0	19070	20.7	2
0	19071	20.7	2
0	19072	20.7	2
0	19074	20.7	2
0	19075	20.7	2
0	19076	20.7	2
0	19107	20.75	2
0	19108	20.75	2
0	19109	20.75	2
0	19134	20.8	2
0	19135	20.8	2
0	19136	20.8	2
0	19138	20.8	2
0	19139	20.8	2
0	19140	20.8	2
0	19171	20.85	2
0	19172	20.85	2
0	19173	20.85	2
0	19198	20.9	2
0	19199	20.9	2
0	19200	20.9	2
0	19202	20.9	2
0	19203	20.9	2
0	19204	20.9	2
0	19327	20.95	2
0	19328	20.95	2
0	19329	20.95	2
0	19377	21	2
0	19378	21	2
0	19379	21	2
0	19381	21	2
0	19382	21	2
0	19383	21	2
0	19414	21.05	2
0	19415	21.05	2
0	19416	21.05	2
0	19444	21.1	2
0	19445	21.1	2
0	19446	21.1	2
0	19448	21.1	2
0	19449	21.1	2
0	19450	21.1	2
0	19529	21.15	2
0	19530	21.15	2
0	19531	21.15	2
0	19556	21.2	2
0	19557	21.2	2
0	19558	21.2	2
0	19560	21.2	2
0	19561	21.2	2
0	19562	21.2	2
0	19593	21.25	2
0	19594	21.25	2
0	19595	21.25	2
0	19620	21.3	2
0	19621	21.3	2
0	19622	21.3	2
0	19624	21.3	2
0	19625	21.3	2
0	19626	21.3	2
0	19657	21.35	2
0	19658	21.35	2
0	19659	21.35	2
0	19684	21.4	2
0	19685	21.4	2
0	19686	21.4	2
0	19688	21.4	2
0	19689	21.4	2
0	19690	21.4	2
0	19721	21.45	2
0	19722	21.45	2
0	19723	21.45	2
0	19845	21.5	2
0	19846	21.5	2
0	19847	21.5	2
0	19849	21.5	2
0	19850	21.5	2
0	19851	21.5	2
0	19924	21.55	2
0	19925	21.55	2
0	19926	21.55	2
0	19951	21.6	2
0	19952	21.6	2
0	19953	21.6	2
0	19955	21.6	2
0	19956	21.6	2
0	19957	21.6	2
0	19988	21.65	2
0	19989	21.65	2
0	19990	21.65	2
0	20038	21.7	2
0	20039	21.7	2
0	20040	21.7	2
0	20042	21.7	2
0	20043	21.7	2
0	20044	21.7	2
0	20075	21.75	2
0	20076	21.75	2
0	20077	21.75	2
0	20102	21.8	2
0	20103	21.8	2
0	20104	21.8	2
0	20106	21.8	2
0	20107	21.8	2
0	20108	21.8	2
0	20139	21.85	2
0	20140	21.85	2
0	20141	21.85	2
0	20166	21.9	2
0	20167	21.9	2
0	20168	21.9	2
0	20170	21.9	2
0	20171	21.9	2
0	20172	21.9	2
0	20203	21.95	2
0	20204	21.95	2
0	20205	21.95	2
0	20230	22	2
0	20231	22	2
0	20232	22	2
0	20234	22	2
0	20235	22	2
0	20236	22	2
0	20359	22.05	2
0	20360	22.05	2
0	20361	22.05	2
0	20412	22.1	2
0	20413	22.1	2
0	20414	22.1	2
0	20416	22.1	2
0	20417	22.1	2
0	20418	22.1	2
0	20453	22.15	2
0	20454	22.15	2
0	20455	22.15	2
0	20480	22.2	2
0	20481	22.2	2
0	20482	22.2	2
0	20484	22.2	2
0	20485	22.2	2
0	20486	22.2	2
0	20561	22.25	2
0	20562	22.25	2
0	20563	22.25	2
0	20588	22.3	2
0	20589	22.3	2
0	20590	22.3	2
0	20592	22.3	2
0	20593	22.3	2
0	20594	22.3	2
0	20625	22.35	2
0	20626	22.35	2
0	20627	22.35	2
0	20652	22.4	2
0	20653	22.4	2
0	20654	22.4	2
0	20656	22.4	2
0	20657	22.4	2
0	20658	22.4	2
0	20689	22.45	2
0	20690	22.45	2
0	20691	22.45	2
0	20716	22.5	2
0	20717	22.5	2
0	20718	22.5	2
0	20720	22.5	2
0	20721	22.5	2
0	20722	22.5	2
0	20753	22.55	2
0	20754	22.55	2
0	20755	22.55	2
0	20874	22.6	2
0	20875	22.6	2
0	20876	22.6	2
0	20878	22.6	2
0	20879	22.6	2
0	20880	22.6	2
0	20953	22.65	2
0	20954	22.65	2
0	20955	22.65	2
0	20980	22.7	2
0	20981	22.7	2
0	20982	22.7	2
0	20984	22.7	2
0	20985	22.7	2
0	20986	22.7	2
0	21017	22.75	2
0	21018	22.75	2
0	21019	22.75	2
0	21067	22.8	2
0	21068	22.8	2
0	21069	22.8	2
0	21071	22.8	2
0	21072	22.8	2
0	21073	22.8	2
0	21104	22.85	2
0	21105	22.85	2
0	21106	22.85	2
0	21131	22.9	2
0	21132	22.9	2
0	21133	22.9	2
0	21135	22.9	2
0	21136	22.9	2
0	21137	22.9	2
0	21168	22.95	2
0	21169	22.95	2
0	21170	22.95	2
0	21195	23	2
0	21196	23	2
0	21197	23	2
0	21199	23	2
0	21200	23	2
0	21201	23	2
0	21232	23.05	2
0	21233	23.05	2
0	21234	23.05	2
0	21262	23.1	2
0	21263	23.1	2
0	21264	23.1	2
0	21266	23.1	2
0	21267	23.1	2
0	21268	23.1	2
0	21397	23.15	2
0	21398	23.15	2
0	21399	23.15	2
0	21466	23.2	2
0	21467	23.2	2
0	21468	23.2	2
0	21470	23.2	2
0	21471	23.2	2
0	21472	23.2	2
0	21503	23.25	2
0	21504	23.25	2
0	21505	23.25	2
0	21530	23.3	2
0	21531	23.3	2
0	21532	23.3	2
0	21534	23.3	2
0	21535	23.3	2
0	21536	23.3	2
0	21611	23.35	2
0	21612	23.35	2
0	21613	23.35	2
0	21638	23.4	2
0	21639	23.4	2
0	21640	23.4	2
0	21642	23.4	2
0	21643	23.4	2
0	21644	23.4	2
0	21675	23.45	2
0	21676	23.45	2
0	21677	23.45	2
0	21702	23.5	2
0	21703	23.5	2
0	21704	23.5	2
0	21706	23.5	2
0	21707	23.5	2
0	21708	23.5	2
0	21739	23.55	2
0	21740	23.55	2
0	21741	23.55	2
0	21766	23.6	2
0	21767	23.6	2
0	21768	23.6	2
0	21770	23.6	2
0	21771	23.6	2
0	21772	23.6	2
0	21803	23.65	2
0	21804	23.65	2
0	21805	23.65	2
0	21922	23.7	2
0	21923	23.7	2
0	21924	23.7	2
0	21926	23.7	2
0	21927	23.7	2
0	21928	23.7	2
0	21982	23.75	2
0	21983	23.75	2
0	21984	23.75	2
0	22009	23.8	2
0	22010	23.8	2
0	22011	23.8	2
0	22013	23.8	2
0	22014	23.8	2
0	22015	23.8	2
0	22046	23.85	2
0	22047	23.85	2
0	22048	23.85	2
0	22096	23.9	2
0	22097	23.9	2
0	22098	23.9	2
0	22100	23.9	2
0	22101	23.9	2
0	22102	23.9	2
0	22133	23.95	2
0	22134	23.95	2
0	22135	23.95	2
0	22160	24	2
0	22161	24	2
0	22162	24	2
0	22164	24	2
0	22165	24	2
0	22166	24	2
0	22197	24.05	2
0	22198	24.05	2
0	22199	24.05	2
0	22227	24.1	2
0	22228	24.1	2
0	22229	24.1	2
0	22231	24.1	2
0	22232	24.1	2
0	22233	24.1	2
0	22268	24.15	2
0	22269	24.15	2
0	22270	24.15	2
0	22295	24.2	2
0	22296	24.2	2
0	22297	24.2	2
0	22299	24.2	2
0	22300	24.2	2
0	22301	24.2	2
0	22426	24.25	2
0	22427	24.25	2
0	22428	24.25	2
0	22479	24.3	2
0	22480	24.3	2
0	22481	24.3	2
0	22483	24.3	2
0	22484	24.3	2
0	22485	24.3	2
0	22516	24.35	2
0	22517	24.35	2
0	22518	24.35	2
0	22543	24.4	2
0	22544	24.4	2
0	22545	24.4	2
0	22547	24.4	2
0	22548	24.4	2
0	22549	24.4	2
0	22624	24.45	2
0	22625	24.45	2
0	22626	24.45	2
0	22651	24.5	2
0	22652	24.5	2
0	22653	24.5	2
0	22655	24.5	2
0	22656	24.5	2
0	22657	24.5	2
0	22688	24.55	2
0	22689	24.55	2
0	22690	24.55	2
0	22715	24.6	2
0	22716	24.6	2
0	22717	24.6	2
0	22719	24.6	2
0	22720	24.6	2
0	22721	24.6	2
0	22752	24.65	2
0	22753	24.65	2
0	22754	24.65	2
0	22779	24.7	2
0	22780	24.7	2
0	22781	24.7	2
0	22783	24.7	2
0	22784	24.7	2
0	22785	24.7	2
0	22816	24.75	2
0	22817	24.75	2
0	22818	24.75	2
0	22937	24.8	2
0	22938	24.8	2
0	22939	24.8	2
0	22941	24.8	2
0	22942	24.8	2
0	22943	24.8	2
0	23016	24.85	2
0	23017	24.85	2
0	23018	24.85	2
0	23043	24.9	2
0	23044	24.9	2
0	23045	24.9	2
0	23047	24.9	2
0	23048	24.9	2
0	23049	24.9	2
0	23080	24.95	2
0	23081	24.95	2
0	23082	24.95	2
0	23130	25	2
0	23131	25	2
0	23132	25	2
0	23134	25	2
0	23135	25	2
0	23136	25	2
0	23167	25.05	2
0	23168	25.05	2
0	23169	25.05	2
0	23197	25.1	2
0	23198	25.1	2
0	23199	25.1	2
0	23201	25.1	2
0	23202	25.1	2
0	23203	25.1	2
0	23238	25.15	2
0	23239	25.15	2
0	23240	25.15	2
0	23265	25.2	2
0	23266	25.2	2
0	23267	25.2	2
0	23269	25.2	2
0	23270	25.2	2
0	23271	25.2	2
0	23302	25.25	2
0	23303	25.25	2
0	23304	25.25	2
0	23329	25.3	2
0	23330	25.3	2
0	23331	25.3	2
0	23333	25.3	2
0	23334	25.3	2
0	23335	25.3	2
0	23460	25.35	2
0	23461	25.35	2
0	23462	25.35	2
0	23513	25.4	2
0	23514	25.4	2
0	23515	25.4	2
0	23517	25.4	2
0	23518	25.4	2
0	23519	25.4	2
0	23550	25.45	2
0	23551	25.45	2
0	23552	25.45	2
0	23577	25.5	2
0	23578	25.5	2
0	23579	25.5	2
0	23581	25.5	2
0	23582	25.5	2
0	23583	25.5	2
0	23658	25.55	2
0	23659	25.55	2
0	23660	25.55	2
0	23685	25.6	2
0	23686	25.6	2
0	23687	25.6	2
0	23689	25.6	2
0	23690	25.6	2
0	23691	25.6	2
0	23722	25.65	2
0	23723	25.65	2
0	23724	25.65	2
0	23749	25.7	2
0	23750	25.7	2
0	23751	25.7	2
0	23753	25.7	2
0	23754	25.7	2
0	23755	25.7	2
0	23786	25.75	2
0	23787	25.75	2
0	23788	25.75	2
0	23813	25.8	2
0	23814	25.8	2
0	23815	25.8	2
0	23817	25.8	2
0	23818	25.8	2
0	23819	25.8	2
0	23850	25.85	2
0	23851	25.85	2
0	23852	25.85	2
0	23951	25.9	2
0	23952	25.9	2
0	23953	25.9	2
0	23955	25.9	2
0	23956	25.9	2
0	23957	25.9	2
0	24011	25.95	2
0	24012	25.95	2
0	24013	25.95	2
0	24038	26	2
0	24039	26	2
0	24040	26	2
0	24042	26	2
0	24043	26	2
0	24044	26	2
0	24075	26.05	2
0	24076	26.05	2
0	24077	26.05	2
0	24128	26.1	2
0	24129	26.1	2
0	24130	26.1	2
0	24132	26.1	2
0	24133	26.1	2
0	24134	26.1	2
0	24169	26.15	2
0	24170	26.15	2
0	24171	26.15	2
0	24196	26.2	2
0	24197	26.2	2
0	24198	26.2	2
0	24200	26.2	2
0	24201	26.2	2
0	24202	26.2	2
0	24233	26.25	2
0	24234	26.25	2
0	24235	26.25	2
0	24260	26.3	2
0	24261	26.3	2
0	24262	26.3	2
0	24264	26.3	2
0	24265	26.3	2
0	24266	26.3	2
0	24297	26.35	2
0	24298	26.35	2
0	24299	26.35	2
0	24324	26.4	2
0	24325	26.4	2
0	24326	26.4	2
0	24328	26.4	2
0	24329	26.4	2
0	24330	26.4	2
0	24445	26.45	2
0	24446	26.45	2
0	24447	26.45	2
0	24520	26.5	2
0	24521	26.5	2
0	24522	26.5	2
0	24524	26.5	2
0	24525	26.5	2
0	24526	26.5	2
0	24557	26.55	2
0	24558	26.55	2
0	24559	26.55	2
0	24607	26.6	2
0	24608	26.6	2
0	24609	26.6	2
0	24611	26.6	2
0	24612	26.6	2
0	24613	26.6	2
0	24667	26.65	2
0	24668	26.65	2
0	24669	26.65	2
0	24694	26.7	2
0	24695	26.7	2
0	24696	26.7	2
0	24698	26.7	2
0	24699	26.7	2
0	24700	26.7	2
0	24731	26.75	2
0	24732	26.75	2
0	24733	26.75	2
0	24758	26.8	2
0	24759	26.8	2
0	24760	26.8	2
0	24762	26.8	2
0	24763	26.8	2
0	24764	26.8	2
0	24795	26.85	2
0	24796	26.85	2
0	24797	26.85	2
0	24822	26.9	2
0	24823	26.9	2
0	24824	26.9	2
0	24826	26.9	2
0	24827	26.9	2
0	24828	26.9	2
0	24859	26.95	2
0	24860	26.95	2
0	24861	26.95	2
0	24968	27	2
0	24969	27	2
0	24970	27	2
0	24972	27	2
0	24973	27	2
0	24974	27	2
0	25036	27.05	2
0	25037	27.05	2
0	25038	27.05	2
0	25066	27.1	2
0	25067	27.1	2
0	25068	27.1	2
0	25070	27.1	2
0	25071	27.1	2
0	25072	27.1	2
0	25135	27.15	2
0	25136	27.15	2
0	25137	27.15	2
0	25185	27.2	2
0	25186	27.2	2
0	25187	27.2	2
0	25189	27.2	2
0	25190	27.2	2
0	25191	27.2	2
0	25222	27.25	2
0	25223	27.25	2
0	25224	27.25	2
0	25249	27.3	2
0	25250	27.3	2
0	25251	27.3	2
0	25253	27.3	2
0	25254	27.3	2
0	25255	27.3	2
0	25286	27.35	2
0	25287	27.35	2
0	25288	27.35	2
0	25313	27.4	2
0	25314	27.4	2
0	25315	27.4	2
0	25317	27.4	2
0	25318	27.4	2
0	25319	27.4	2
0	25350	27.45	2
0	25351	27.45	2
0	25352	27.45	2
0	25377	27.5	2
0	25378	27.5	2
0	25379	27.5	2
0	25381	27.5	2
0	25382	27.5	2
0	25383	27.5	2
0	25496	27.55	2
0	25497	27.55	2
0	25498	27.55	2
0	25549	27.6	2
0	25550	27.6	2
0	25551	27.6	2
0	25553	27.6	2
0	25554	27.6	2
0	25555	27.6	2
0	25586	27.65	2
0	25587	27.65	2
0	25588	27.65	2
0	25618	27.7	2
0	25619	27.7	2
0	25620	27.7	2
0	25622	27.7	2
0	25623	27.7	2
0	25624	27.7	2
0	25678	27.75	2
0	25679	27.75	2
0	25680	27.75	2
0	25705	27.8	2
0	25706	27.8	2
0	25707	27.8	2
0	25709	27.8	2
0	25710	27.8	2
0	25711	27.8	2
0	25742	27.85	2
0	25743	27.85	2
0	25744	27.85	2
0	25769	27.9	2
0	25770	27.9	2
0	25771	27.9	2
0	25773	27.9	2
0	25774	27.9	2
0	25775	27.9	2
0	25806	27.95	2
0	25807	27.95	2
0	25808	27.95	2
0	25833	28	2
0	25834	28	2
0	25835	28	2
0	25837	28	2
0	25838	28	2
0	25839	28	2
0	25870	28.05	2
0	25871	28.05	2
0	25872	28.05	2
0	25967	28.1	2
0	25968	28.1	2
0	25969	28.1	2
0	25971	28.1	2
0	25972	28.1	2
0	25973	28.1	2
0	26031	28.15	2
0	26032	28.15	2
0	26033	28.15	2
0	26058	28.2	2
0	26059	28.2	2
0	26060	28.2	2
0	26062	28.2	2
0	26063	28.2	2
0	26064	28.2	2
0	26095	28.25	2
0	26096	28.25	2
0	26097	28.25	2
0	26145	28.3	2
0	26146	28.3	2
0	26147	28.3	2
0	26149	28.3	2
0	26150	28.3	2
0	26151	28.3	2
0	26182	28.35	2
0	26183	28.35	2
0	26184	28.35	2
0	26209	28.4	2
0	26210	28.4	2
0	26211	28.4	2
0	26213	28.4	2
0	26214	28.4	2
0	26215	28.4	2
0	26246	28.45	2
0	26247	28.45	2
0	26248	28.45	2
0	26273	28.5	2
0	26274	28.5	2
0	26275	28.5	2
0	26277	28.5	2
0	26278	28.5	2
0	26279	28.5	2
0	26310	28.55	2
0	26311	28.55	2
0	26312	28.55	2
0	26337	28.6	2
0	26338	28.6	2
0	26339	28.6	2
0	26341	28.6	2
0	26342	28.6	2
0	26343	28.6	2
0	26435	28.65	2
0	26436	28.65	2
0	26437	28.65	2
0	26485	28.7	2
0	26486	28.7	2
0	26487	28.7	2
0	26489	28.7	2
0	26490	28.7	2
0	26491	28.7	2
0	26522	28.75	2
0	26523	28.75	2
0	26524	28.75	2
0	26549	28.8	2
0	26550	28.8	2
0	26551	28.8	2
0	26553	28.8	2
0	26554	28.8	2
0	26555	28.8	2
0	26609	28.85	2
0	26610	28.85	2
0	26611	28.85	2
0	26636	28.9	2
0	26637	28.9	2
0	26638	28.9	2
0	26640	28.9	2
0	26641	28.9	2
0	26642	28.9	2
0	26673	28.95	2
0	26674	28.95	2
0	26675	28.95	2
0	26700	29	2
0	26701	29	2
0	26702	29	2
0	26704	29	2
0	26705	29	2
0	26706	29	2
0	26737	29.05	2
0	26738	29.05	2
0	26739	29.05	2
0	26767	29.1	2
0	26768	29.1	2
0	26769	29.1	2
0	26771	29.1	2
0	26772	29.1	2
0	26773	29.1	2
0	26813	29.15	2
0	26814	29.15	2
0	26815	29.15	2
0	26901	29.2	2
0	26902	29.2	2
0	26903	29.2	2
0	26905	29.2	2
0	26906	29.2	2
0	26907	29.2	2
0	26995	29.25	2
0	26996	29.25	2
0	26997	29.25	2
0	27071	29.3	2
0	27072	29.3	2
0	27073	29.3	2
0	27075	29.3	2
0	27076	29.3	2
0	27077	29.3	2
0	27108	29.35	2
0	27109	29.35	2
0	27110	29.35	2
0	27158	29.4	2
0	27159	29.4	2
0	27160	29.4	2
0	27162	29.4	2
0	27163	29.4	2
0	27164	29.4	2
0	27195	29.45	2
0	27196	29.45	2
0	27197	29.45	2
0	27222	29.5	2
0	27223	29.5	2
0	27224	29.5	2
0	27226	29.5	2
0	27227	29.5	2
0	27228	29.5	2
0	27259	29.55	2
0	27260	29.55	2
0	27261	29.55	2
0	27286	29.6	2
0	27287	29.6	2
0	27288	29.6	2
0	27290	29.6	2
0	27291	29.6	2
0	27292	29.6	2
0	27323	29.65	2
0	27324	29.65	2
0	27325	29.65	2
0	27355	29.7	2
0	27356	29.7	2
0	27357	29.7	2
0	27359	29.7	2
0	27360	29.7	2
0	27361	29.7	2
0	27438	29.75	2
0	27439	29.75	2
0	27440	29.75	2
0	27488	29.8	2
0	27489	29.8	2
0	27490	29.8	2
0	27492	29.8	2
0	27493	29.8	2
0	27494	29.8	2
0	27525	29.85	2
0	27526	29.85	2
0	27527	29.85	2
0	27552	29.9	2
0	27553	29.9	2
0	27554	29.9	2
0	27556	29.9	2
0	27557	29.9	2
0	27558	29.9	2
0	27612	29.95	2
0	27613	29.95	2
0	27614	29.95	2
0	27639	30	2
0	27640	30	2
0	27641	30	2
0	27643	30	2
0	27644	30	2
0	27645	30	2
0	27676	30.05	2
0	27677	30.05	2
0	27678	30.05	2
0	27706	30.1	2
0	27707	30.1	2
0	27708	30.1	2
0	27710	30.1	2
0	27711	30.1	2
0	27712	30.1	2
0	27747	30.15	2
0	27748	30.15	2
0	27749	30.15	2
0	27774	30.2	2
0	27775	30.2	2
0	27776	30.2	2
0	27778	30.2	2
0	27779	30.2	2
0	27780	30.2	2
0	27811	30.25	2
0	27812	30.25	2
0	27813	30.25	2
0	27899	30.3	2
0	27900	30.3	2
0	27901	30.3	2
0	27903	30.3	2
0	27904	30.3	2
0	27905	30.3	2
0	27950	30.35	2
0	27951	30.35	2
0	27952	30.35	2
0	27977	30.4	2
0	27978	30.4	2
0	27979	30.4	2
0	27981	30.4	2
0	27982	30.4	2
0	27983	30.4	2
0	28014	30.45	2
0	28015	30.45	2
0	28016	30.45	2
0	28041	30.5	2
0	28042	30.5	2
0	28043	30.5	2
0	28045	30.5	2
0	28046	30.5	2
0	28047	30.5	2
0	28078	30.55	2
0	28079	30.55	2
0	28080	30.55	2
0	28105	30.6	2
0	28106	30.6	2
0	28107	30.6	2
0	28109	30.6	2
0	28110	30.6	2
0	28111	30.6	2
0	28142	30.65	2
0	28143	30.65	2
0	28144	30.65	2
0	28169	30.7	2
0	28170	30.7	2
0	28171	30.7	2
0	28173	30.7	2
0	28174	30.7	2
0	28175	30.7	2
0	28206	30.75	2
0	28207	30.75	2
0	28208	30.75	2
0	28233	30.8	2
0	28234	30.8	2
0	28235	30.8	2
0	28237	30.8	2
0	28238	30.8	2
0	28239	30.8	2
0	28275	30.85	2
0	28276	30.85	2
0	28277	30.85	2
0	28307	30.9	2
0	28308	30.9	2
0	28309	30.9	2
0	28311	30.9	2
0	28312	30.9	2
0	28313	30.9	2
0	28344	30.95	2
0	28345	30.95	2
0	28346	30.95	2
0	28371	31	2
0	28372	31	2
0	28373	31	2
0	28375	31	2
0	28376	31	2
0	28377	31	2
0	28408	31.05	2
0	28409	31.05	2
0	28410	31.05	2
0	28438	31.1	2
0	28439	31.1	2
0	28440	31.1	2
0	28442	31.1	2
0	28443	31.1	2
0	28444	31.1	2
0	28479	31.15	2
0	28480	31.15	2
0	28481	31.15	2
0	28506	31.2	2
0	28507	31.2	2
0	28508	31.2	2
0	28510	31.2	2
0	28511	31.2	2
0	28512	31.2	2
0	28543	31.25	2
0	28544	31.25	2
0	28545	31.25	2
0	28587	31.3	2
0	28588	31.3	2
0	28589	31.3	2
0	28591	31.3	2
0	28592	31.3	2
0	28593	31.3	2
0	28624	31.35	2
0	28625	31.35	2
0	28626	31.35	2
0	28651	31.4	2
0	28652	31.4	2
0	28653	31.4	2
0	28655	31.4	2
0	28656	31.4	2
0	28657	31.4	2
0	28693	31.45	2
0	28694	31.45	2
0	28695	31.45	2
0	28723	31.5	2
0	28724	31.5	2
0	28725	31.5	2
0	28727	31.5	2
0	28728	31.5	2
0	28729	31.5	2
0	28783	31.55	2
0	28784	31.55	2
0	28785	31.55	2
0	28810	31.6	2
0	28811	31.6	2
0	28812	31.6	2
0	28814	31.6	2
0	28815	31.6	2
0	28816	31.6	2
0	28847	31.65	2
0	28848	31.65	2
0	28849	31.65	2
0	28897	31.7	2
0	28898	31.7	2
0	28899	31.7	2
0	28901	31.7	2
0	28902	31.7	2
0	28903	31.7	2
0	28934	31.75	2
0	28935	31.75	2
0	28936	31.75	2
0	28961	31.8	2
0	28962	31.8	2
0	28963	31.8	2
0	28965	31.8	2
0	28966	31.8	2
0	28967	31.8	2
0	28998	31.85	2
0	28999	31.85	2
0	29000	31.85	2
0	29030	31.9	2
0	29031	31.9	2
0	29032	31.9	2
0	29034	31.9	2
0	29035	31.9	2
0	29036	31.9	2
0	29067	31.95	2
0	29068	31.95	2
0	29069	31.95	2
0	29094	32	2
0	29095	32	2
0	29096	32	2
0	29098	32	2
0	29099	32	2
0	29100	32	2
0	29131	32.05	2
0	29132	32.05	2
0	29133	32.05	2
0	29184	32.1	2
0	29185	32.1	2
0	29186	32.1	2
0	29188	32.1	2
0	29189	32.1	2
0	29190	32.1	2
0	29226	32.15	2
0	29227	32.15	2
0	29228	32.15	2
0	29253	32.2	2
0	29254	32.2	2
0	29255	32.2	2
0	29257	32.2	2
0	29258	32.2	2
0	29259	32.2	2
0	29313	32.25	1
0	29314	32.25	0
0	29315	32.25	1
0	29336	32.3	1
0	29337	32.3	0
0	29338	32.3	1
0	29340	32.3	1
0	29341	32.3	0
0	29342	32.3	1
0	29367	32.35	1
0	29368	32.35	0
0	29369	32.35	1
0	29390	32.4	1
0	29391	32.4	0
0	29392	32.4	1
0	29394	32.4	1
0	29395	32.4	0
0	29396	32.4	1
0	29421	32.45	1
0	29422	32.45	0
0	29423	32.45	1
0	29444	32.5	1
0	29445	32.5	0
0	29446	32.5	1
0	29448	32.5	1
0	29449	32.5	0
0	29450	32.5	1
0	29475	32.55	1
0	29476	32.55	0
0	29477	32.55	1
0	29498	32.6	1
0	29499	32.6	0
0	29500	32.6	1
0	29502	32.6	1
0	29503	32.6	0
0	29504	32.6	1
0	29552	32.65	1
0	29553	32.65	0
0	29554	32.65	1
0	29575	32.7	1
0	29576	32.7	0
0	29577	32.7	1
0	29579	32.7	1
0	29580	32.7	0
0	29581	32.7	1
0	29606	32.75	1
0	29607	32.75	0
0	29608	32.75	1
0	29652	32.8	1
0	29653	32.8	0
0	29654	32.8	1
0	29656	32.8	1
0	29657	32.8	0
0	29658	32.8	1
0	29683	32.85	1
0	29684	32.85	0
0	29685	32.85	1
0	29706	32.9	1
0	29707	32.9	0
0	29708	32.9	1
0	29710	32.9	1
0	29711	32.9	0
0	29712	32.9	1
0	29737	32.95	1
0	29738	32.95	0
0	29739	32.95	1
0	29760	33	1
0	29761	33	0
0	29762	33	1
0	29764	33	1
0	29765	33	0
0	29766	33	1
0	29791	33.05	1
0	29792	33.05	0
0	29793	33.05	1
0	29817	33.1	1
0	29818	33.1	0
0	29819	33.1	1
0	29821	33.1	1
0	29822	33.1	0
0	29823	33.1	1
0	29853	33.15	1
0	29854	33.15	0
0	29855	33.15	1
0	29899	33.2	1
0	29900	33.2	0
0	29901	33.2	1
0	29903	33.2	1
0	29904	33.2	0
0	29905	33.2	1
0	29930	33.25	1
0	29931	33.25	0
0	29932	33.25	1
0	29953	33.3	1
0	29954	33.3	0
0	29955	33.3	1
0	29957	33.3	1
0	29958	33.3	0
0	29959	33.3	1
0	29989	33.35	1
0	29990	33.35	0
0	29991	33.35	1
0	30012	33.4	1
0	30013	33.4	0
0	30014	33.4	1
0	30016	33.4	1
0	30017	33.4	0
0	30018	33.4	1
0	30043	33.45	1
0	30044	33.45	0
0	30045	33.45	1
0	30066	33.5	1
0	30067	33.5	0
0	30068	33.5	1
0	30070	33.5	1
0	30071	33.5	0
0	30072	33.5	1
0	30097	33.55	1
0	30098	33.55	0
0	30099	33.55	1
0	30120	33.6	1
0	30121	33.6	0
0	30122	33.6	1
0	30124	33.6	1
0	30125	33.6	0
0	30126	33.6	1
0	30151	33.65	1
0	30152	33.65	0
0	30153	33.65	1
0	30174	33.7	1
0	30175	33.7	0
0	30176	33.7	1
0	30178	33.7	1
0	30179	33.7	0
0	30180	33.7	1
0	30205	33.75	1
0	30206	33.75	0
0	30207	33.75	1
0	30228	33.8	1
0	30229	33.8	0
0	30230	33.8	1
0	30232	33.8	1
0	30233	33.8	0
0	30234	33.8	1
0	30259	33.85	1
0	30260	33.85	0
0	30261	33.85	1
0	30282	33.9	1
0	30283	33.9	0
0	30284	33.9	1
0	30286	33.9	1
0	30287	33.9	0
0	30288	33.9	1
0	30313	33.95	1
0	30314	33.95	0
0	30315	33.95	1
0	30336	34	1
0	30337	34	0
0	30338	34	1
0	30340	34	1
0	30341	34	0
0	30342	34	1
0	30367	34.05	1
0	30368	34.05	0
0	30369	34.05	1
0	30393	34.1	1
0	30394	34.1	0
0	30395	34.1	1
0	30397	34.1	1
0	30398	34.1	0
0	30399	34.1	1
0	30429	34.15	1
0	30430	34.15	0
0	30431	34.15	1
0	30452	34.2	1
0	30453	34.2	0
0	30454	34.2	1
0	30456	34.2	1
0	30457	34.2	0
0	30458	34.2	1
0	30483	34.25	1
0	30484	34.25	0
0	30485	34.25	1
0	30506	34.3	1
0	30507	34.3	0
0	30508	34.3	1
0	30510	34.3	1
0	30511	34.3	0
0	30512	34.3	1
0	30537	34.35	1
0	30538	34.35	0
0	30539	34.35	1
0	30560	34.4	1
0	30561	34.4	0
0	30562	34.4	1
0	30564	34.4	1
0	30565	34.4	0
0	30566	34.4	1
0	30591	34.45	1
0	30592	34.45	0
0	30593	34.45	1
0	30614	34.5	1
0	30615	34.5	0
0	30616	34.5	1
0	30618	34.5	1
0	30619	34.5	0
0	30620	34.5	1
0	30645	34.55	1
0	30646	34.55	0
0	30647	34.55	1
0	30668	34.6	1
0	30669	34.6	0
0	30670	34.6	1
0	30672	34.6	1
0	30673	34.6	0
0	30674	34.6	1
0	30699	34.65	1
0	30700	34.65	0
0	30701	34.65	1
0	30722	34.7	1
0	30723	34.7	0
0	30724	34.7	1
0	30726	34.7	1
0	30727	34.7	0
0	30728	34.7	1
0	30753	34.75	1
0	30754	34.75	0
0	30755	34.75	1
0	30799	34.8	1
0	30800	34.8	0
0	30801	34.8	1
0	30803	34.8	1
0	30804	34.8	0
0	30805	34.8	1
0	30830	34.85	1
0	30831	34.85	0
0	30832	34.85	1
0	30853	34.9	1
0	30854	34.9	0
0	30855	34.9	1
0	30857	34.9	1
0	30858	34.9	0
0	30859	34.9	1
0	30907	34.95	1
0	30908	34.95	0
0	30909	34.95	1
0	30930	35	1
0	30931	35	0
0	30932	35	1
0	30934	35	1
0	30935	35	0
0	30936	35	1
0	30961	35.05	1
0	30962	35.05	0
0	30963	35.05	1
0	30987	35.1	1
0	30988	35.1	0
0	30989	35.1	1
0	30991	35.1	1
0	30992	35.1	0
0	30993	35.1	1
0	31023	35.15	1
0	31024	35.15	0
0	31025	35.15	1
0	31046	35.2	1
0	31047	35.2	0
0	31048	35.2	1
0	31050	35.2	1
0	31051	35.2	0
0	31052	35.2	1
0	31077	35.25	1
0	31078	35.25	0
0	31079	35.25	1
0	31100	35.3	1
0	31101	35.3	0
0	31102	35.3	1
0	31104	35.3	1
0	31105	35.3	0
0	31106	35.3	1
0	31154	35.35	1
0	31155	35.35	0
0	31156	35.35	1
0	31177	35.4	1
0	31178	35.4	0
0	31179	35.4	1
0	31181	35.4	1
0	31182	35.4	0
0	31183	35.4	1
0	31208	35.45	1
0	31209	35.45	0
0	31210	35.45	1
0	31254	35.5	1
0	31255	35.5	0
0	31256	35.5	1
0	31258	35.5	1
0	31259	35.5	0
0	31260	35.5	1
0	31285	35.55	1
0	31286	35.55	0
0	31287	35.55	1
0	31308	35.6	1
0	31309	35.6	0
0	31310	35.6	1
0	31312	35.6	1
0	31313	35.6	0
0	31314	35.6	1
0	31339	35.65	1
0	31340	35.65	0
0	31341	35.65	1
0	31362	35.7	1
0	31363	35.7	0
0	31364	35.7	1
0	31366	35.7	1
0	31367	35.7	0
0	31368	35.7	1
0	31393	35.75	1
0	31394	35.75	0
0	31395	35.75	1
0	31416	35.8	1
0	31417	35.8	0
0	31418	35.8	1
0	31420	35.8	1
0	31421	35.8	0
0	31422	35.8	1
0	31447	35.85	1
0	31448	35.85	0
0	31449	35.85	1
0	31493	35.9	1
0	31494	35.9	0
0	31495	35.9	1
0	31497	35.9	1
0	31498	35.9	0
0	31499	35.9	1
0	31524	35.95	1
0	31525	35.95	0
0	31526	35.95	1
0	31547	36	1
0	31548	36	0
0	31549	36	1
0	31551	36	1
0	31552	36	0
0	31553	36	1
0	31601	36.05	1
0	31602	36.05	0
0	31603	36.05	1
0	31627	36.1	1
0	31628	36.1	0
0	31629	36.1	1
0	31631	36.1	1
0	31632	36.1	0
0	31633	36.1	1
0	31663	36.15	1
0	31664	36.15	0
0	31665	36.15	1
0	31686	36.2	1
0	31687	36.2	0
0	31688	36.2	1
0	31690	36.2	1
0	31691	36.2	0
0	31692	36.2	1
0	31717	36.25	1
0	31718	36.25	0
0	31719	36.25	1
0	31740	36.3	1
0	31741	36.3	0
0	31742	36.3	1
0	31744	36.3	1
0	31745	36.3	0
0	31746	36.3	1
0	31771	36.35	1
0	31772	36.35	0
0	31773	36.35	1
0	31794	36.4	1
0	31795	36.4	0
0	31796	36.4	1
0	31798	36.4	1
0	31799	36.4	0
0	31800	36.4	1
0	31848	36.45	1
0	31849	36.45	0
0	31850	36.45	1
0	31874	36.5	1
0	31875	36.5	0
0	31876	36.5	1
0	31878	36.5	1
0	31879	36.5	0
0	31880	36.5	1
0	31905	36.55	1
0	31906	36.55	0
0	31907	36.55	1
0	31951	36.6	1
0	31952	36.6	0
0	31953	36.6	1
0	31955	36.6	1
0	31956	36.6	0
0	31957	36.6	1
0	31982	36.65	1
0	31983	36.65	0
0	31984	36.65	1
0	32005	36.7	1
0	32006	36.7	0
0	32007	36.7	1
0	32009	36.7	1
0	32010	36.7	0
0	32011	36.7	1
0	32036	36.75	1
0	32037	36.75	0
0	32038	36.75	1
0	32059	36.8	1
0	32060	36.8	0
0	32061	36.8	1
0	32063	36.8	1
0	32064	36.8	0
0	32065	36.8	1
0	32090	36.85	1
0	32091	36.85	0
0	32092	36.85	1
0	32113	36.9	1
0	32114	36.9	0
0	32115	36.9	1
0	32117	36.9	1
0	32118	36.9	0
0	32119	36.9	1
0	32144	36.95	1
0	32145	36.95	0
0	32146	36.95	1
0	32184	37	1
0	32185	37	0
0	32186	37	1
0	32188	37	1
0	32189	37	0
0	32190	37	1
0	32215	37.05	1
0	32216	37.05	0
0	32217	37.05	1
0	32241	37.1	1
0	32242	37.1	0
0	32243	37.1	1
0	32245	37.1	1
0	32246	37.1	0
0	32247	37.1	1
0	32300	37.15	1
0	32301	37.15	0
0	32302	37.15	1
0	32323	37.2	1
0	32324	37.2	0
0	32325	37.2	1
0	32327	37.2	1
0	32328	37.2	0
0	32329	37.2	1
0	32354	37.25	1
0	32355	37.25	0
0	32356	37.25	1
0	32377	37.3	1
0	32378	37.3	0
0	32379	37.3	1
0	32381	37.3	1
0	32382	37.3	0
0	32383	37.3	1
0	32408	37.35	1
0	32409	37.35	0
0	32410	37.35	1
0	32431	37.4	1
0	32432	37.4	0
0	32433	37.4	1
0	32435	37.4	1
0	32436	37.4	0
0	32437	37.4	1
0	32462	37.45	1
0	32463	37.45	0
0	32464	37.45	1
0	32485	37.5	1
0	32486	37.5	0
0	32487	37.5	1
0	32489	37.5	1
0	32490	37.5	0
0	32491	37.5	1
0	32560	37.55	1
0	32561	37.55	0
0	32562	37.55	1
0	32583	37.6	1
0	32584	37.6	0
0	32585	37.6	1
0	32587	37.6	1
0	32588	37.6	0
0	32589	37.6	1
0	32614	37.65	1
0	32615	37.65	0
0	32616	37.65	1
0	32660	37.7	1
0	32661	37.7	0
0	32662	37.7	1
0	32664	37.7	1
0	32665	37.7	0
0	32666	37.7	1
0	32691	37.75	1
0	32692	37.75	0
0	32693	37.75	1
0	32714	37.8	1
0	32715	37.8	0
0	32716	37.8	1
0	32718	37.8	1
0	32719	37.8	0
0	32720	37.8	1
0	32745	37.85	1
0	32746	37.85	0
0	32747	37.85	1
0	32768	37.9	1
0	32769	37.9	0
0	32770	37.9	1
0	32772	37.9	1
0	32773	37.9	0
0	32774	37.9	1
0	32799	37.95	1
0	32800	37.95	0
0	32801	37.95	1
0	32822	38	1
0	32823	38	0
0	32824	38	1
0	32826	38	1
0	32827	38	0
0	32828	38	1
0	32853	38.05	1
0	32854	38.05	0
0	32855	38.05	1
0	32902	38.1	1
0	32903	38.1	0
0	32904	38.1	1
0	32906	38.1	1
0	32907	38.1	0
0	32908	38.1	1
0	32938	38.15	1
0	32939	38.15	0
0	32940	38.15	1
0	32961	38.2	1
0	32962	38.2	0
0	32963	38.2	1
0	32965	38.2	1
0	32966	38.2	0
0	32967	38.2	1
0	33015	38.25	1
0	33016	38.25	0
0	33017	38.25	1
0	33038	38.3	1
0	33039	38.3	0
0	33040	38.3	1
0	33042	38.3	1
0	33043	38.3	0
0	33044	38.3	1
0	33069	38.35	1
0	33070	38.35	0
0	33071	38.35	1
0	33092	38.4	1
0	33093	38.4	0
0	33094	38.4	1
0	33096	38.4	1
0	33097	38.4	0
0	33098	38.4	1
0	33123	38.45	1
0	33124	38.45	0
0	33125	38.45	1
0	33146	38.5	1
0	33147	38.5	0
0	33148	38.5	1
0	33150	38.5	1
0	33151	38.5	0
0	33152	38.5	1
0	33177	38.55	1
0	33178	38.55	0
0	33179	38.55	1
0	33200	38.6	1
0	33201	38.6	0
0	33202	38.6	1
0	33204	38.6	1
0	33205	38.6	0
0	33206	38.6	1
0	33275	38.65	1
0	33276	38.65	0
0	33277	38.65	1
0	33298	38.7	1
0	33299	38.7	0
0	33300	38.7	1
0	33302	38.7	1
0	33303	38.7	0
0	33304	38.7	1
0	33329	38.75	1
0	33330	38.75	0
0	33331	38.75	1
0	33375	38.8	1
0	33376	38.8	0
0	33377	38.8	1
0	33379	38.8	1
0	33380	38.8	0
0	33381	38.8	1
0	33406	38.85	1
0	33407	38.85	0
0	33408	38.85	1
0	33429	38.9	1
0	33430	38.9	0
0	33431	38.9	1
0	33433	38.9	1
0	33434	38.9	0
0	33435	38.9	1
0	33460	38.95	1
0	33461	38.95	0
0	33462	38.95	1
0	33483	39	1
0	33484	39	0
0	33485	39	1
0	33487	39	1
0	33488	39	0
0	33489	39	1
0	33514	39.05	1
0	33515	39.05	0
0	33516	39.05	1
0	33540	39.1	1
0	33541	39.1	0
0	33542	39.1	1
0	33544	39.1	1
0	33545	39.1	0
0	33546	39.1	1
0	33576	39.15	1
0	33577	39.15	0
0	33578	39.15	1
0	33643	39.2	1
0	33644	39.2	0
0	33645	39.2	1
0	33647	39.2	1
0	33648	39.2	0
0	33649	39.2	1
0	33674	39.25	1
0	33675	39.25	0
0	33676	39.25	1
0	33697	39.3	1
0	33698	39.3	0
0	33699	39.3	1
0	33701	39.3	1
0	33702	39.3	0
0	33703	39.3	1
0	33751	39.35	1
0	33752	39.35	0
0	33753	39.35	1
0	33774	39.4	1
0	33775	39.4	0
0	33776	39.4	1
0	33778	39.4	1
0	33779	39.4	0
0	33780	39.4	1
0	33805	39.45	1
0	33806	39.45	0
0	33807	39.45	1
0	33828	39.5	1
0	33829	39.5	0
0	33830	39.5	1
0	33832	39.5	1
0	33833	39.5	0
0	33834	39.5	1
0	33859	39.55	1
0	33860	39.55	0
0	33861	39.55	1
0	33882	39.6	1
0	33883	39.6	0
0	33884	39.6	1
0	33886	39.6	1
0	33887	39.6	0
0	33888	39.6	1
0	33913	39.65	1
0	33914	39.65	0
0	33915	39.65	1
0	33936	39.7	1
0	33937	39.7	0
0	33938	39.7	1
0	33940	39.7	1
0	33941	39.7	0
0	33942	39.7	1
0	33990	39.75	1
0	33991	39.75	0
0	33992	39.75	1
0	34013	39.8	1
0	34014	39.8	0
0	34015	39.8	1
0	34017	39.8	1
0	34018	39.8	0
0	34019	39.8	1
0	34044	39.85	1
0	34045	39.85	0
0	34046	39.85	1
0	34090	39.9	1
0	34091	39.9	0
0	34092	39.9	1
0	34094	39.9	1
0	34095	39.9	0
0	34096	39.9	1
0	34121	39.95	1
0	34122	39.95	0
0	34123	39.95	1
0	34144	40	1
0	34145	40	0
0	34146	40	1
0	34148	40	1
0	34149	40	0
0	34150	40	1
0	34175	40.05	1
0	34176	40.05	0
0	34177	40.05	1
0	34201	40.1	1
0	34202	40.1	0
0	34203	40.1	1
0	34204	40.1	1
0	34205	40.1	0
0	34206	40.1	1
0	34236	40.15	1
0	34237	40.15	0
0	34238	40.15	1
0	34259	40.2	1
0	34260	40.2	0
0	34261	40.2	1
0	34262	40.2	1
0	34263	40.2	0
0	34264	40.2	1
0	34289	40.25	1
0	34290	40.25	0
0	34291	40.25	1
0	34351	40.3	1
0	34352	40.3	0
0	34353	40.3	1
0	34354	40.3	1
0	34355	40.3	0
0	34356	40.3	1
0	34381	40.35	1
0	34382	40.35	0
0	34383	40.35	1
0	34404	40.4	1
0	34405	40.4	0
0	34406	40.4	1
0	34407	40.4	1
0	34408	40.4	0
0	34409	40.4	1
0	34457	40.45	1
0	34458	40.45	0
0	34459	40.45	1
0	34480	40.5	1
0	34481	40.5	0
0	34482	40.5	1
0	34483	40.5	1
0	34484	40.5	0
0	34485	40.5	1
0	34510	40.55	1
0	34511	40.55	0
0	34512	40.55	1
0	34533	40.6	1
0	34534	40.6	0
0	34535	40.6	1
0	34536	40.6	1
0	34537	40.6	0
0	34538	40.6	1
0	34563	40.65	1
0	34564	40.65	0
0	34565	40.65	1
0	34586	40.7	1
0	34587	40.7	0
0	34588	40.7	1
0	34589	40.7	1
0	34590	40.7	0
0	34591	40.7	1
0	34616	40.75	1
0	34617	40.75	0
0	34618	40.75	1
0	34639	40.8	1
0	34640	40.8	0
0	34641	40.8	1
0	34642	40.8	1
0	34643	40.8	0
0	34644	40.8	1
0	34697	40.85	1
0	34698	40.85	0
0	34699	40.85	1
0	34720	40.9	1
0	34721	40.9	0
0	34722	40.9	1
0	34723	40.9	1
0	34724	40.9	0
0	34725	40.9	1
0	34750	40.95	1
0	34751	40.95	0
0	34752	40.95	1
0	34796	41	1
0	34797	41	0
0	34798	41	1
0	34799	41	1
0	34800	41	0
0	34801	41	1
0	34826	41.05	1
0	34827	41.05	0
0	34828	41.05	1
0	34852	41.1	1
0	34853	41.1	0
0	34854	41.1	1
0	34855	41.1	1
0	34856	41.1	0
0	34857	41.1	1
0	34887	41.15	1
0	34888	41.15	0
0	34889	41.15	1
0	34910	41.2	1
0	34911	41.2	0
0	34912	41.2	1
0	34913	41.2	1
0	34914	41.2	0
0	34915	41.2	1
0	34940	41.25	1
0	34941	41.25	0
0	34942	41.25	1
0	34963	41.3	1
0	34964	41.3	0
0	34965	41.3	1
0	34966	41.3	1
0	34967	41.3	0
0	34968	41.3	1
0	34993	41.35	1
0	34994	41.35	0
0	34995	41.35	1
0	35021	41.4	1
0	35022	41.4	0
0	35023	41.4	1
0	35024	41.4	1
0	35025	41.4	0
0	35026	41.4	1
0	35051	41.45	1
0	35052	41.45	0
0	35053	41.45	1
0	35077	41.5	1
0	35078	41.5	0
0	35079	41.5	1
0	35080	41.5	1
0	35081	41.5	0
0	35082	41.5	1
0	35107	41.55	1
0	35108	41.55	0
0	35109	41.55	1
0	35130	41.6	1
0	35131	41.6	0
0	35132	41.6	1
0	35133	41.6	1
0	35134	41.6	0
0	35135	41.6	1
0	35160	41.65	1
0	35161	41.65	0
0	35162	41.65	1
0	35183	41.7	1
0	35184	41.7	0
0	35185	41.7	1
0	35186	41.7	1
0	35187	41.7	0
0	35188	41.7	1
0	35213	41.75	1
0	35214	41.75	0
0	35215	41.75	1
0	35236	41.8	1
0	35237	41.8	0
0	35238	41.8	1
0	35239	41.8	1
0	35240	41.8	0
0	35241	41.8	1
0	35266	41.85	1
0	35267	41.85	0
0	35268	41.85	1
0	35289	41.9	1
0	35290	41.9	0
0	35291	41.9	1
0	35292	41.9	1
0	35293	41.9	0
0	35294	41.9	1
0	35319	41.95	1
0	35320	41.95	0
0	35321	41.95	1
0	35342	42	1
0	35343	42	0
0	35344	42	1
0	35345	42	1
0	35346	42	0
0	35347	42	1
0	35372	42.05	1
0	35373	42.05	0
0	35374	42.05	1
0	35398	42.1	1
0	35399	42.1	0
0	35400	42.1	1
0	35401	42.1	1
0	35402	42.1	0
0	35403	42.1	1
0	35433	42.15	1
0	35434	42.15	0
0	35435	42.15	1
0	35456	42.2	1
0	35457	42.2	0
0	35458	42.2	1
0	35459	42.2	1
0	35460	42.2	0
0	35461	42.2	1
0	35486	42.25	1
0	35487	42.25	0
0	35488	42.25	1
0	35509	42.3	1
0	35510	42.3	0
0	35511	42.3	1
0	35512	42.3	1
0	35513	42.3	0
0	35514	42.3	1
0	35539	42.35	1
0	35540	42.35	0
0	35541	42.35	1
0	35562	42.4	1
0	35563	42.4	0
0	35564	42.4	1
0	35565	42.4	1
0	35566	42.4	0
0	35567	42.4	1
0	35592	42.45	1
0	35593	42.45	0
0	35594	42.45	1
0	35615	42.5	1
0	35616	42.5	0
0	35617	42.5	1
0	35618	42.5	1
0	35619	42.5	0
0	35620	42.5	1
0	35645	42.55	1
0	35646	42.55	0
0	35647	42.55	1
0	35691	42.6	1
0	35692	42.6	0
0	35693	42.6	1
0	35694	42.6	1
0	35695	42.6	0
0	35696	42.6	1
0	35721	42.65	1
0	35722	42.65	0
0	35723	42.65	1
0	35744	42.7	1
0	35745	42.7	0
0	35746	42.7	1
0	35747	42.7	1
0	35748	42.7	0
0	35749	42.7	1
0	35833	42.75	1
0	35834	42.75	0
0	35835	42.75	1
0	35883	42.8	1
0	35884	42.8	0
0	35885	42.8	1
0	35886	42.8	1
0	35887	42.8	0
0	35888	42.8	1
0	35913	42.85	1
0	35914	42.85	0
0	35915	42.85	1
0	35936	42.9	1
0	35937	42.9	0
0	35938	42.9	1
0	35939	42.9	1
0	35940	42.9	0
0	35941	42.9	1
0	35966	42.95	1
0	35967	42.95	0
0	35968	42.95	1
0	35989	43	1
0	35990	43	0
0	35991	43	1
0	35992	43	1
0	35993	43	0
0	35994	43	1
0	36019	43.05	1
0	36020	43.05	0
0	36021	43.05	1
0	36045	43.1	1
0	36046	43.1	0
0	36047	43.1	1
0	36048	43.1	1
0	36049	43.1	0
0	36050	43.1	1
0	36103	43.15	1
0	36104	43.15	0
0	36105	43.15	1
0	36126	43.2	1
0	36127	43.2	0
0	36128	43.2	1
0	36129	43.2	1
0	36130	43.2	0
0	36131	43.2	1
0	36156	43.25	1
0	36157	43.25	0
0	36158	43.25	1
0	36223	43.3	1
0	36224	43.3	0
0	36225	43.3	1
0	36226	43.3	1
0	36227	43.3	0
0	36228	43.3	1
0	36253	43.35	1
0	36254	43.35	0
0	36255	43.35	1
0	36276	43.4	1
0	36277	43.4	0
0	36278	43.4	1
0	36279	43.4	1
0	36280	43.4	0
0	36281	43.4	1
0	36306	43.45	1
0	36307	43.45	0
0	36308	43.45	1
0	36329	43.5	1
0	36330	43.5	0
0	36331	43.5	1
0	36332	43.5	1
0	36333	43.5	0
0	36334	43.5	1
0	36359	43.55	1
0	36360	43.55	0
0	36361	43.55	1
0	36382	43.6	1
0	36383	43.6	0
0	36384	43.6	1
0	36385	43.6	1
0	36386	43.6	0
0	36387	43.6	1
0	36412	43.65	1
0	36413	43.65	0
0	36414	43.65	1
0	36458	43.7	1
0	36459	43.7	0
0	36460	43.7	1
0	36461	43.7	1
0	36462	43.7	0
0	36463	43.7	1
0	36488	43.75	1
0	36489	43.75	0
0	36490	43.75	1
0	36511	43.8	1
0	36512	43.8	0
0	36513	43.8	1
0	36514	43.8	1
0	36515	43.8	0
0	36516	43.8	1
0	36564	43.85	1
0	36565	43.85	0
0	36566	43.85	1
0	36587	43.9	1
0	36588	43.9	0
0	36589	43.9	1
0	36590	43.9	1
0	36591	43.9	0
0	36592	43.9	1
0	36617	43.95	1
0	36618	43.95	0
0	36619	43.95	1
0	36640	44	1
0	36641	44	0
0	36642	44	1
0	36643	44	1
0	36644	44	0
0	36645	44	1
0	36670	44.05	1
0	36671	44.05	0
0	36672	44.05	1
0	36696	44.1	1
0	36697	44.1	0
0	36698	44.1	1
0	36699	44.1	1
0	36700	44.1	0
0	36701	44.1	1
0	36731	44.15	1
0	36732	44.15	0
0	36733	44.15	1
0	36754	44.2	1
0	36755	44.2	0
0	36756	44.2	1
0	36757	44.2	1
0	36758	44.2	0
0	36759	44.2	1
0	36807	44.25	1
0	36808	44.25	0
0	36809	44.25	1
0	36830	44.3	1
0	36831	44.3	0
0	36832	44.3	1
0	36833	44.3	1
0	36834	44.3	0
0	36835	44.3	1
0	36860	44.35	1
0	36861	44.35	0
0	36862	44.35	1
0	36927	44.4	1
0	36928	44.4	0
0	36929	44.4	1
0	36930	44.4	1
0	36931	44.4	0
0	36932	44.4	1
0	36957	44.45	1
0	36958	44.45	0
0	36959	44.45	1
0	36980	44.5	1
0	36981	44.5	0
0	36982	44.5	1
0	36983	44.5	1
0	36984	44.5	0
0	36985	44.5	1
0	37010	44.55	1
0	37011	44.55	0
0	37012	44.55	1
0	37033	44.6	1
0	37034	44.6	0
0	37035	44.6	1
0	37036	44.6	1
0	37037	44.6	0
0	37038	44.6	1
0	37063	44.65	1
0	37064	44.65	0
0	37065	44.65	1
0	37086	44.7	1
0	37087	44.7	0
0	37088	44.7	1
0	37089	44.7	1
0	37090	44.7	0
0	37091	44.7	1
0	37116	44.75	1
0	37117	44.75	0
0	37118	44.75	1
0	37162	44.8	1
0	37163	44.8	0
0	37164	44.8	1
0	37165	44.8	1
0	37166	44.8	0
0	37167	44.8	1
0	37192	44.85	1
0	37193	44.85	0
0	37194	44.85	1
0	37215	44.9	1
0	37216	44.9	0
0	37217	44.9	1
0	37218	44.9	1
0	37219	44.9	0
0	37220	44.9	1
0	37268	44.95	1
0	37269	44.95	0
0	37270	44.95	1
0	37291	45	1
0	37292	45	0
0	37293	45	1
0	37294	45	1
0	37295	45	0
0	37296	45	1
0	37321	45.05	1
0	37322	45.05	0
0	37323	45.05	1
0	37347	45.1	1
0	37348	45.1	0
0	37349	45.1	1
0	37350	45.1	1
0	37351	45.1	0
0	37352	45.1	1
0	37382	45.15	1
0	37383	45.15	0
0	37384	45.15	1
0	37405	45.2	1
0	37406	45.2	0
0	37407	45.2	1
0	37408	45.2	1
0	37409	45.2	0
0	37410	45.2	1
0	37435	45.25	1
0	37436	45.25	0
0	37437	45.25	1
0	37458	45.3	1
0	37459	45.3	0
0	37460	45.3	1
0	37461	45.3	1
0	37462	45.3	0
0	37463	45.3	1
0	37511	45.35	1
0	37512	45.35	0
0	37513	45.35	1
0	37534	45.4	1
0	37535	45.4	0
0	37536	45.4	1
0	37537	45.4	1
0	37538	45.4	0
0	37539	45.4	1
0	37564	45.45	1
0	37565	45.45	0
0	37566	45.45	1
0	37631	45.5	1
0	37632	45.5	0
0	37633	45.5	1
0	37634	45.5	1
0	37635	45.5	0
0	37636	45.5	1
0	37661	45.55	1
0	37662	45.55	0
0	37663	45.55	1
0	37684	45.6	1
0	37685	45.6	0
0	37686	45.6	1
0	37687	45.6	1
0	37688	45.6	0
0	37689	45.6	1
0	37714	45.65	1
0	37715	45.65	0
0	37716	45.65	1
0	37737	45.7	1
0	37738	45.7	0
0	37739	45.7	1
0	37740	45.7	1
0	37741	45.7	0
0	37742	45.7	1
0	37767	45.75	1
0	37768	45.75	0
0	37769	45.75	1
0	37790	45.8	1
0	37791	45.8	0
0	37792	45.8	1
0	37793	45.8	1
0	37794	45.8	0
0	37795	45.8	1
0	37820	45.85	1
0	37821	45.85	0
0	37822	45.85	1
0	37866	45.9	1
0	37867	45.9	0
0	37868	45.9	1
0	37869	45.9	1
0	37870	45.9	0
0	37871	45.9	1
0	37896	45.95	1
0	37897	45.95	0
0	37898	45.95	1
0	37919	46	1
0	37920	46	0
0	37921	46	1
0	37922	46	1
0	37923	46	0
0	37924	46	1
0	37972	46.05	1
0	37973	46.05	0
0	37974	46.05	1
0	37998	46.1	1
0	37999	46.1	0
0	38000	46.1	1
0	38001	46.1	1
0	38002	46.1	0
0	38003	46.1	1
0	38033	46.15	1
0	38034	46.15	0
0	38035	46.15	1
0	38056	46.2	1
0	38057	46.2	0
0	38058	46.2	1
0	38059	46.2	1
0	38060	46.2	0
0	38061	46.2	1
0	38086	46.25	1
0	38087	46.25	0
0	38088	46.25	1
0	38109	46.3	1
0	38110	46.3	0
0	38111	46.3	1
0	38112	46.3	1
0	38113	46.3	0
0	38114	46.3	1
0	38139	46.35	1
0	38140	46.35	0
0	38141	46.35	1
0	38162	46.4	1
0	38163	46.4	0
0	38164	46.4	1
0	38165	46.4	1
0	38166	46.4	0
0	38167	46.4	1
0	38215	46.45	1
0	38216	46.45	0
0	38217	46.45	1
0	38241	46.5	1
0	38242	46.5	0
0	38243	46.5	1
0	38244	46.5	1
0	38245	46.5	0
0	38246	46.5	1
0	38271	46.55	1
0	38272	46.55	0
0	38273	46.55	1
0	38338	46.6	1
0	38339	46.6	0
0	38340	46.6	1
0	38341	46.6	1
0	38342	46.6	0
0	38343	46.6	1
0	38368	46.65	1
0	38369	46.65	0
0	38370	46.65	1
0	38391	46.7	1
0	38392	46.7	0
0	38393	46.7	1
0	38394	46.7	1
0	38395	46.7	0
0	38396	46.7	1
0	38421	46.75	1
0	38422	46.75	0
0	38423	46.75	1
0	38444	46.8	1
0	38445	46.8	0
0	38446	46.8	1
0	38447	46.8	1
0	38448	46.8	0
0	38449	46.8	1
0	38474	46.85	1
0	38475	46.85	0
0	38476	46.85	1
0	38497	46.9	1
0	38498	46.9	0
0	38499	46.9	1
0	38500	46.9	1
0	38501	46.9	0
0	38502	46.9	1
0	38527	46.95	1
0	38528	46.95	0
0	38529	46.95	1
0	38567	47	1
0	38568	47	0
0	38569	47	1
0	38570	47	1
0	38571	47	0
0	38572	47	1
0	38597	47.05	1
0	38598	47.05	0
0	38599	47.05	1
0	38623	47.1	1
0	38624	47.1	0
0	38625	47.1	1
0	38626	47.1	1
0	38627	47.1	0
0	38628	47.1	1
0	38702	47.15	1
0	38703	47.15	0
0	38704	47.15	1
0	38725	47.2	1
0	38726	47.2	0
0	38727	47.2	1
0	38728	47.2	1
0	38729	47.2	0
0	38730	47.2	1
0	38755	47.25	1
0	38756	47.25	0
0	38757	47.25	1
0	38778	47.3	1
0	38779	47.3	0
0	38780	47.3	1
0	38781	47.3	1
0	38782	47.3	0
0	38783	47.3	1
0	38808	47.35	1
0	38809	47.35	0
0	38810	47.35	1
0	38831	47.4	1
0	38832	47.4	0
0	38833	47.4	1
0	38834	47.4	1
0	38835	47.4	0
0	38836	47.4	1
0	38861	47.45	1
0	38862	47.45	0
0	38863	47.45	1
0	38884	47.5	1
0	38885	47.5	0
0	38886	47.5	1
0	38887	47.5	1
0	38888	47.5	0
0	38889	47.5	1
0	38931	47.55	1
0	38932	47.55	0
0	38933	47.55	1
0	38954	47.6	1
0	38955	47.6	0
0	38956	47.6	1
0	38957	47.6	1
0	38958	47.6	0
0	38959	47.6	1
0	38984	47.65	1
0	38985	47.65	0
0	38986	47.65	1
0	39030	47.7	1
0	39031	47.7	0
0	39032	47.7	1
0	39033	47.7	1
0	39034	47.7	0
0	39035	47.7	1
0	39060	47.75	1
0	39061	47.75	0
0	39062	47.75	1
0	39083	47.8	1
0	39084	47.8	0
0	39085	47.8	1
0	39086	47.8	1
0	39087	47.8	0
0	39088	47.8	1
0	39113	47.85	1
0	39114	47.85	0
0	39115	47.85	1
0	39136	47.9	1
0	39137	47.9	0
0	39138	47.9	1
0	39139	47.9	1
0	39140	47.9	0
0	39141	47.9	1
0	39166	47.95	1
0	39167	47.95	0
0	39168	47.95	1
0	39189	48	1
0	39190	48	0
0	39191	48	1
0	39192	48	1
0	39193	48	0
0	39194	48	1
0	39219	48.05	1
0	39220	48.05	0
0	39221	48.05	1
0	39268	48.1	1
0	39269	48.1	0
0	39270	48.1	1
0	39271	48.1	1
0	39272	48.1	0
0	39273	48.1	1
0	39303	48.15	1
0	39304	48.15	0
0	39305	48.15	1
0	39326	48.2	1
0	39327	48.2	0
0	39328	48.2	1
0	39329	48.2	1
0	39330	48.2	0
0	39331	48.2	1
0	39395	48.25	1
0	39396	48.25	0
0	39397	48.25	1
0	39418	48.3	1
0	39419	48.3	0
0	39420	48.3	1
0	39421	48.3	1
0	39422	48.3	0
0	39423	48.3	1
0	39448	48.35	1
0	39449	48.35	0
0	39450	48.35	1
0	39471	48.4	1
0	39472	48.4	0
0	39473	48.4	1
0	39474	48.4	1
0	39475	48.4	0
0	39476	48.4	1
0	39501	48.45	1
0	39502	48.45	0
0	39503	48.45	1
0	39524	48.5	1
0	39525	48.5	0
0	39526	48.5	1
0	39527	48.5	1
0	39528	48.5	0
0	39529	48.5	1
0	39554	48.55	1
0	39555	48.55	0
0	39556	48.55	1
0	39577	48.6	1
0	39578	48.6	0
0	39579	48.6	1
0	39580	48.6	1
0	39581	48.6	0
0	39582	48.6	1
0	39612	48.65	1
0	39613	48.65	0
0	39614	48.65	1
0	39635	48.7	1
0	39636	48.7	0
0	39637	48.7	1
0	39638	48.7	1
0	39639	48.7	0
0	39640	48.7	1
0	39665	48.75	1
0	39666	48.75	0
0	39667	48.75	1
0	39688	48.8	1
0	39689	48.8	0
0	39690	48.8	1
0	39691	48.8	1
0	39692	48.8	0
0	39693	48.8	1
0	39718	48.85	1
0	39719	48.85	0
0	39720	48.85	1
0	39741	48.9	1
0	39742	48.9	0
0	39743	48.9	1
0	39744	48.9	1
0	39745	48.9	0
0	39746	48.9	1
0	39771	48.95	1
0	39772	48.95	0
0	39773	48.95	1
0	39794	49	1
0	39795	49	0
0	39796	49	1
0	39797	49	1
0	39798	49	0
0	39799	49	1
0	39824	49.05	1
0	39825	49.05	0
0	39826	49.05	1
0	39850	49.1	1
0	39851	49.1	0
0	39852	49.1	1
0	39853	49.1	1
0	39854	49.1	0
0	39855	49.1	1
0	39885	49.15	1
0	39886	49.15	0
0	39887	49.15	1
0	39908	49.2	1
0	39909	49.2	0
0	39910	49.2	1
0	39911	49.2	1
0	39912	49.2	0
0	39913	49.2	1
0	39938	49.25	1
0	39939	49.25	0
0	39940	49.25	1
0	39961	49.3	1
0	39962	49.3	0
0	39963	49.3	1
0	39964	49.3	1
0	39965	49.3	0
0	39966	49.3	1
0	39991	49.35	1
0	39992	49.35	0
0	39993	49.35	1
0	40014	49.4	1
0	40015	49.4	0
0	40016	49.4	1
0	40017	49.4	1
0	40018	49.4	0
0	40019	49.4	1
0	40044	49.45	1
0	40045	49.45	0
0	40046	49.45	1
0	40067	49.5	1
0	40068	49.5	0
0	40069	49.5	1
0	40070	49.5	1
0	40071	49.5	0
0	40072	49.5	1
0	40097	49.55	1
0	40098	49.55	0
0	40099	49.55	1
0	40120	49.6	1
0	40121	49.6	0
0	40122	49.6	1
0	40123	49.6	1
0	40124	49.6	0
0	40125	49.6	1
0	40150	49.65	1
0	40151	49.65	0
0	40152	49.65	1
0	40173	49.7	1
0	40174	49.7	0
0	40175	49.7	1
0	40176	49.7	1
0	40177	49.7	0
0	40178	49.7	1
0	40203	49.75	1
0	40204	49.75	0
0	40205	49.75	1
0	40226	49.8	1
0	40227	49.8	0
0	40228	49.8	1
0	40229	49.8	1
0	40230	49.8	0
0	40231	49.8	1
0	40273	49.85	1
0	40274	49.85	0
0	40275	49.85	1
0	40296	49.9	1
0	40297	49.9	0
0	40298	49.9	1
0	40299	49.9	1
0	40300	49.9	0
0	40301	49.9	1
0	40326	49.95	1
0	40327	49.95	0
0	40328	49.95	1
0	40372	50	1
0	40373	50	0
0	40374	50	1
0	40375	50	1
0	40376	50	0
0	40377	50	1
0	40402	50.05	1
0	40403	50.05	0
0	40404	50.05	1
0	40428	50.1	1
0	40429	50.1	0
0	40430	50.1	1
0	40431	50.1	1
0	40432	50.1	0
0	40433	50.1	1
0	40463	50.15	1
0	40464	50.15	0
0	40465	50.15	1
0	40486	50.2	1
0	40487	50.2	0
0	40488	50.2	1
0	40489	50.2	1
0	40490	50.2	0
0	40491	50.2	1
0	40516	50.25	1
0	40517	50.25	0
0	40518	50.25	1
0	40539	50.3	1
0	40540	50.3	0
0	40541	50.3	1
0	40542	50.3	1
0	40543	50.3	0
0	40544	50.3	1
0	40569	50.35	1
0	40570	50.35	0
0	40571	50.35	1
0	40651	50.4	1
0	40652	50.4	0
0	40653	50.4	1
0	40654	50.4	1
0	40655	50.4	0
0	40656	50.4	1
0	40708	50.45	1
0	40709	50.45	0
0	40710	50.45	1
0	40731	50.5	1
0	40732	50.5	0
0	40733	50.5	1
0	40734	50.5	1
0	40735	50.5	0
0	40736	50.5	1
0	40784	50.55	1
0	40785	50.55	0
0	40786	50.55	1
0	40807	50.6	1
0	40808	50.6	0
0	40809	50.6	1
0	40810	50.6	1
0	40811	50.6	0
0	40812	50.6	1
0	40837	50.65	1
0	40838	50.65	0
0	40839	50.65	1
0	40860	50.7	1
0	40861	50.7	0
0	40862	50.7	1
0	40863	50.7	1
0	40864	50.7	0
0	40865	50.7	1
0	40890	50.75	1
0	40891	50.75	0
0	40892	50.75	1
0	40913	50.8	1
0	40914	50.8	0
0	40915	50.8	1
0	40916	50.8	1
0	40917	50.8	0
0	40918	50.8	1
0	40943	50.85	1
0	40944	50.85	0
0	40945	50.85	1
0	40966	50.9	1
0	40967	50.9	0
0	40968	50.9	1
0	40969	50.9	1
0	40970	50.9	0
0	40971	50.9	1
0	41019	50.95	1
0	41020	50.95	0
0	41021	50.95	1
0	41042	51	1
0	41043	51	0
0	41044	51	1
0	41045	51	1
0	41046	51	0
0	41047	51	1
0	41072	51.05	1
0	41073	51.05	0
0	41074	51.05	1
0	41121	51.1	1
0	41122	51.1	0
0	41123	51.1	1
0	41124	51.1	1
0	41125	51.1	0
0	41126	51.1	1
0	41156	51.15	1
0	41157	51.15	0
0	41158	51.15	1
0	41179	51.2	1
0	41180	51.2	0
0	41181	51.2	1
0	41182	51.2	1
0	41183	51.2	0
0	41184	51.2	1
0	41209	51.25	1
0	41210	51.25	0
0	41211	51.25	1
0	41232	51.3	1
0	41233	51.3	0
0	41234	51.3	1
0	41235	51.3	1
0	41236	51.3	0
0	41237	51.3	1
0	41262	51.35	1
0	41263	51.35	0
0	41264	51.35	1
0	41285	51.4	1
0	41286	51.4	0
0	41287	51.4	1
0	41288	51.4	1
0	41289	51.4	0
0	41290	51.4	1
0	41315	51.45	1
0	41316	51.45	0
0	41317	51.45	1
0	41385	51.5	1
0	41386	51.5	0
0	41387	51.5	1
0	41388	51.5	1
0	41389	51.5	0
0	41390	51.5	1
0	41415	51.55	1
0	41416	51.55	0
0	41417	51.55	1
0	41438	51.6	1
0	41439	51.6	0
0	41440	51.6	1
0	41441	51.6	1
0	41442	51.6	0
0	41443	51.6	1
0	41491	51.65	1
0	41492	51.65	0
0	41493	51.65	1
0	41514	51.7	1
0	41515	51.7	0
0	41516	51.7	1
0	41517	51.7	1
0	41518	51.7	0
0	41519	51.7	1
0	41544	51.75	1
0	41545	51.75	0
0	41546	51.75	1
0	41567	51.8	1
0	41568	51.8	0
0	41569	51.8	1
0	41570	51.8	1
0	41571	51.8	0
0	41572	51.8	1
0	41597	51.85	1
0	41598	51.85	0
0	41599	51.85	1
0	41620	51.9	1
0	41621	51.9	0
0	41622	51.9	1
0	41623	51.9	1
0	41624	51.9	0
0	41625	51.9	1
0	41650	51.95	1
0	41651	51.95	0
0	41652	51.95	1
0	41673	52	1
0	41674	52	0
0	41675	52	1
0	41676	52	1
0	41677	52	0
0	41678	52	1
0	41726	52.05	1
0	41727	52.05	0
0	41728	52.05	1
1	37	0.1	-nan
1	39	0.1	-nan
1	41	0.1	-nan
1	683	1.1	-nan
1	684	1.1	-nan
1	685	1.1	-nan
1	1605	2.1	-nan
1	1606	2.1	-nan
1	1607	2.1	-nan
1	2527	3.1	-nan
1	2528	3.1	-nan
1	2529	3.1	-nan
1	3443	4.1	-nan
1	3444	4.1	-nan
1	3445	4.1	-nan
1	4368	5.1	-nan
1	4369	5.1	-nan
1	4370	5.1	-nan
1	5549	6.1	-nan
1	5550	6.1	-nan
1	5551	6.1	-nan
1	6379	7.1	-nan
1	6380	7.1	-nan
1	6381	7.1	-nan
1	7344	8.1	-nan
1	7345	8.1	-nan
1	7346	8.1	-nan
1	8303	9.1	-nan
1	8304	9.1	-nan
1	8305	9.1	-nan
1	9244	10.1	-nan
1	9245	10.1	-nan
1	9246	10.1	-nan
1	10186	11.1	-nan
1	10187	11.1	-nan
1	10188	11.1	-nan
1	10977	12.1	-nan
1	10978	12.1	-nan
1	10979	12.1	-nan
1	11915	13.1	-nan
1	11916	13.1	-nan
1	11917	13.1	-nan
1	12938	14.1	-nan
1	12939	14.1	-nan
1	12940	14.1	-nan
1	13853	15.1	-nan
1	13854	15.1	-nan
1	13855	15.1	-nan
1	14839	16.1	-nan
1	14840	16.1	-nan
1	14841	16.1	-nan
1	15784	17.1	-nan
1	15785	17.1	-nan
1	15786	17.1	-nan
1	16651	18.1	-nan
1	16652	18.1	-nan
1	16653	18.1	-nan
1	17525	19.1	-nan
1	17526	19.1	-nan
1	17527	19.1	-nan
1	18499	20.1	-nan
1	18500	20.1	-nan
1	18501	20.1	-nan
1	19441	21.1	-nan
1	19442	21.1	-nan
1	19443	21.1	-nan
1	20409	22.1	-nan
1	20410	22.1	-nan
1	20411	22.1	-nan
1	21259	23.1	-nan
1	21260	23.1	-nan
1	21261	23.1	-nan
1	22224	24.1	-nan
1	22225	24.1	-nan
1	22226	24.1	-nan
1	23194	25.1	-nan
1	23195	25.1	-nan
1	23196	25.1	-nan
1	24125	26.1	-nan
1	24126	26.1	-nan
1	24127	26.1	-nan
1	25063	27.1	-nan
1	25064	27.1	-nan
1	25065	27.1	-nan
1	25964	28.1	-nan
1	25965	28.1	-nan
1	25966	28.1	-nan
1	26764	29.1	-nan
1	26765	29.1	-nan
1	26766	29.1	-nan
1	27703	30.1	-nan
1	27704	30.1	-nan
1	27705	30.1	-nan
1	28435	31.1	-nan
1	28436	31.1	-nan
1	28437	31.1	-nan
1	29181	32.1	-nan
1	29182	32.1	-nan
1	29183	32.1	-nan
1	29814	33.1	-nan
1	29815	33.1	-nan
1	29816	33.1	-nan
1	30390	34.1	-nan
1	30391	34.1	-nan
1	30392	34.1	-nan
1	30984	35.1	-nan
1	30985	35.1	-nan
1	30986	35.1	-nan
1	31624	36.1	-nan
1	31625	36.1	-nan
1	31626	36.1	-nan
1	32238	37.1	-nan
1	32239	37.1	-nan
1	32240	37.1	-nan
1	32899	38.1	-nan
1	32900	38.1	-nan
1	32901	38.1	-nan
1	33537	39.1	-nan
1	33538	39.1	-nan
1	33539	39.1	-nan
1	34198	40.1	-nan
1	34199	40.1	-nan
1	34200	40.1	-nan
1	34849	41.1	-nan
1	34850	41.1	-nan
1	34851	41.1	-nan
1	35395	42.1	-nan
1	35396	42.1	-nan
1	35397	42.1	-nan
1	36042	43.1	-nan
1	36043	43.1	-nan
1	36044	43.1	-nan
1	36693	44.1	-nan
1	36694	44.1	-nan
1	36695	44.1	-nan
1	37344	45.1	-nan
1	37345	45.1	-nan
1	37346	45.1	-nan
1	37995	46.1	-nan
1	37996	46.1	-nan
1	37997	46.1	-nan
1	38620	47.1	-nan
1	38621	47.1	-nan
1	38622	47.1	-nan
1	39265	48.1	-nan
1	39266	48.1	-nan
1	39267	48.1	-nan
1	39847	49.1	-nan
1	39848	49.1	-nan
1	39849	49.1	-nan
1	40425	50.1	-nan
1	40426	50.1	-nan
1	40427	50.1	-nan
1	41118	51.1	-nan
1	41119	51.1	-nan
1	41120	51.1	-nan
2	4866	5.55277835206	141
2	4877	5.552926591803	282
2	4904	5.56661835206	423
2	4915	5.566766591803	564
2	4942	5.58045835206	705
2	4953	5.580606591803	846
2	4980	5.59429835206	987
2	4991	5.594446591803	1128
2	5055	5.60813835206	1269
2	5066	5.608286591803	1410
2	5093	5.62197835206	1551
2	5104	5.622126591803	1692
2	6091	6.65277835206	1833
2	6102	6.652926591803	1974
2	6635	7.20277835206	2115
2	6646	7.202926591803	2256
2	7664	8.30277835206	2397
2	7675	8.302926591803	2538
2	8687	9.40277835206	2679
2	8698	9.402926591803	2820
2	9614	10.493584192201	2961
2	9642	10.49813835206	3102
2	10635	11.59813835206	3243
2	11148	12.15277835206	3384
2	11620	12.702797915178	3525
2	11638	12.716637915178	3666
2	12154	13.25277835206	3807
2	12173	13.26661835206	3948
2	12192	13.28045835206	4089
2	12387	13.483626728067	4230
2	12898	14.033626728067	4371
2	13237	14.35277835206	4512
2	13930	15.133626728067	4653
2	13949	15.147466728067	4794
2	14281	15.45277835206	4935
2	14978	16.233626728067	5076
2	15313	16.55277835206	5217
2	16004	17.333626728067	5358
2	16336	17.65277835206	5499
2	16859	18.20277835206	5640
2	17804	19.30277835206	5781
2	17812	19.302797915178	5922
2	17838	19.316637915178	6063
2	18301	19.85277835206	6204
2	18324	19.86661835206	6345
2	18837	20.402778559509	6486
2	18993	20.583626728067	6627
2	19516	21.133626728067	6768
2	19890	21.502781454072	6909
2	20548	22.233626728067	7050
2	20919	22.602788897889	7191
2	21432	23.15279502907	7332
2	21598	23.333626728067	7473
2	22611	24.433626728067	7614
2	22982	24.802828587361	7755
2	23645	25.533626728067	7896
2	24440	26.448257568943	8037
2	24488	26.46209832049	8178
2	24963	26.998510847	8319
2	25491	27.54857577742	8460
2	25951	28.083918469141	8601
2	26422	28.633960387562	8742
2	26888	29.183977045252	8883
2	26973	29.233626728067	9024
2	26991	29.247466728067	9165
2	27038	29.261306728067	9306
2	27880	30.283977434707	9447
2	27894	30.297817517234	9588
2	32547	37.533626728067	9729
2	33262	38.633626728067	9870
2	33630	39.183626728067	10011
2	34343	40.283626728067	10152
2	35809	42.733626728067	10293
2	35828	42.747466728067	10434
2	35870	42.761306728067	10575
2	36210	43.283626728067	10716
2	36914	44.383626728067	10857
2	37618	45.483626728067	10998
2	38325	46.583626728067	11139
2	38689	47.133626728067	11280
2	39387	48.233626728067	11421
2	40627	50.383626728067	11562
2	40646	50.397466728067	11703
2	40695	50.411306728067	11844
2	41369	51.483626728067	11985
3	4866	5.55277835206	141
3	4877	5.552926591803	282
3	4904	5.56661835206	423
3	4915	5.566766591803	564
3	4942	5.58045835206	705
3	4953	5.580606591803	846
3	4980	5.59429835206	987
3	4991	5.594446591803	1128
3	5055	5.60813835206	1269
3	5066	5.608286591803	1410
3	5093	5.62197835206	1551
3	5104	5.622126591803	1692
3	6091	6.65277835206	1833
3	6102	6.652926591803	1974
3	6635	7.20277835206	2115
3	6646	7.202926591803	2256
3	7664	8.30277835206	2397
3	7675	8.302926591803	2538
3	8687	9.40277835206	2679
3	8698	9.402926591803	2820
3	9614	10.493584192201	2961
3	9642	10.49813835206	3102
3	10635	11.59813835206	3243
3	11148	12.15277835206	3384
3	11620	12.702797915178	3525
3	11638	12.716637915178	3666
3	12154	13.25277835206	3807
3	12173	13.26661835206	3948
3	12192	13.28045835206	4089
3	12387	13.483626728067	4230
3	12898	14.033626728067	4371
3	13237	14.35277835206	4512
3	13930	15.133626728067	4653
3	13949	15.147466728067	4794
3	14281	15.45277835206	4935
3	14978	16.233626728067	5076
3	15313	16.55277835206	5217
3	16004	17.333626728067	5358
3	16336	17.65277835206	5499
3	16859	18.20277835206	5640
3	17804	19.30277835206	5781
3	17812	19.302797915178	5922
3	17838	19.316637915178	6063
3	18301	19.85277835206	6204
3	18324	19.86661835206	6345
3	18837	20.402778559509	6486
3	18993	20.583626728067	6627
3	19516	21.133626728067	6768
3	19890	21.502781454072	6909
3	20548	22.233626728067	7050
3	20919	22.602788897889	7191
3	21432	23.15279502907	7332
3	21598	23.333626728067	7473
3	22611	24.433626728067	7614
3	22982	24.802828587361	7755
3	23645	25.533626728067	7896
3	24440	26.448257568943	8037
3	24488	26.46209832049	8178
3	24963	26.998510847	8319
3	25491	27.54857577742	8460
3	25951	28.083918469141	8601
3	26422	28.633960387562	8742
3	26888	29.183977045252	8883
3	26973	29.233626728067	9024
3	26991	29.247466728067	9165
3	27038	29.261306728067	9306
3	27880	30.283977434707	9447
3	27894	30.297817517234	9588
3	32547	37.533626728067	9729
3	33262	38.633626728067	9870
3	33630	39.183626728067	10011
3	34343	40.283626728067	10152
3	35809	42.733626728067	10293
3	35828	42.747466728067	10434
3	35870	42.761306728067	10575
3	36210	43.283626728067	10716
3	36914	44.383626728067	10857
3	37618	45.483626728067	10998
3	38325	46.583626728067	11139
3	38689	47.133626728067	11280
3	39387	48.233626728067	11421
3	40627	50.383626728067	11562
3	40646	50.397466728067	11703
3	40695	50.411306728067	11844
3	41369	51.483626728067	11985
0	41752	52.1	1
0	41753	52.1	0
0	41754	52.1	1
0	41755	52.1	1
0	41756	52.1	0
0	41757	52.1	1
0	41787	52.15	1
0	41788	52.15	0
0	41789	52.15	1
0	41833	52.2	1
0	41834	52.2	0
0	41835	52.2	1
0	41836	52.2	1
0	41837	52.2	0
0	41838	52.2	1
0	41863	52.25	1
0	41864	52.25	0
0	41865	52.25	1
0	41886	52.3	1
0	41887	52.3	0
0	41888	52.3	1
0	41889	52.3	1
0	41890	52.3	0
0	41891	52.3	1
0	41916	52.35	1
0	41917	52.35	0
0	41918	52.35	1
0	41939	52.4	1
0	41940	52.4	0
0	41941	52.4	1
0	41942	52.4	1
0	41943	52.4	0
0	41944	52.4	1
0	41969	52.45	1
0	41970	52.45	0
0	41971	52.45	1
0	41992	52.5	1
0	41993	52.5	0
0	41994	52.5	1
0	41995	52.5	1
0	41996	52.5	0
0	41997	52.5	1
0	42022	52.55	1
0	42023	52.55	0
0	42024	52.55	1
0	42089	52.6	1
0	42090	52.6	0
0	42091	52.6	1
0	42092	52.6	1
0	42093	52.6	0
0	42094	52.6	1
0	42119	52.65	1
0	42120	52.65	0
0	42121	52.65	1
0	42142	52.7	1
0	42143	52.7	0
0	42144	52.7	1
0	42145	52.7	1
0	42146	52.7	0
0	42147	52.7	1
0	42195	52.75	1
0	42196	52.75	0
0	42197	52.75	1
0	42218	52.8	1
0	42219	52.8	0
0	42220	52.8	1
0	42221	52.8	1
0	42222	52.8	0
0	42223	52.8	1
0	42248	52.85	1
0	42249	52.85	0
0	42250	52.85	1
0	42271	52.9	1
0	42272	52.9	0
0	42273	52.9	1
0	42274	52.9	1
0	42275	52.9	0
0	42276	52.9	1
0	42301	52.95	1
0	42302	52.95	0
0	42303	52.95	1
0	42324	53	1
0	42325	53	0
0	42326	53	1
0	42327	53	1
0	42328	53	0
0	42329	53	1
0	42354	53.05	1
0	42355	53.05	0
0	42356	53.05	1
0	42380	53.1	1
0	42381	53.1	0
0	42382	53.1	1
0	42383	53.1	1
0	42384	53.1	0
0	42385	53.1	1
0	42459	53.15	1
0	42460	53.15	0
0	42461	53.15	1
0	42482	53.2	1
0	42483	53.2	0
0	42484	53.2	1
0	42485	53.2	1
0	42486	53.2	0
0	42487	53.2	1
0	42512	53.25	1
0	42513	53.25	0
0	42514	53.25	1
0	42558	53.3	1
0	42559	53.3	0
0	42560	53.3	1
0	42561	53.3	1
0	42562	53.3	0
0	42563	53.3	1
0	42588	53.35	1
0	42589	53.35	0
0	42590	53.35	1
0	42611	53.4	1
0	42612	53.4	0
0	42613	53.4	1
0	42614	53.4	1
0	42615	53.4	0
0	42616	53.4	1
0	42641	53.45	1
0	42642	53.45	0
0	42643	53.45	1
0	42664	53.5	1
0	42665	53.5	0
0	42666	53.5	1
0	42667	53.5	1
0	42668	53.5	0
0	42669	53.5	1
0	42694	53.55	1
0	42695	53.55	0
0	42696	53.55	1
0	42717	53.6	1
0	42718	53.6	0
0	42719	53.6	1
0	42720	53.6	1
0	42721	53.6	0
0	42722	53.6	1
0	42747	53.65	1
0	42748	53.65	0
0	42749	53.65	1
0	42793	53.7	1
0	42794	53.7	0
0	42795	53.7	1
0	42796	53.7	1
0	42797	53.7	0
0	42798	53.7	1
0	42823	53.75	1
0	42824	53.75	0
0	42825	53.75	1
0	42846	53.8	1
0	42847	53.8	0
0	42848	53.8	1
0	42849	53.8	1
0	42850	53.8	0
0	42851	53.8	1
0	42899	53.85	1
0	42900	53.85	0
0	42901	53.85	1
0	42922	53.9	1
0	42923	53.9	0
0	42924	53.9	1
0	42925	53.9	1
0	42926	53.9	0
0	42927	53.9	1
0	42952	53.95	1
0	42953	53.95	0
0	42954	53.95	1
0	42975	54	1
0	42976	54	0
0	42977	54	1
0	42978	54	1
0	42979	54	0
0	42980	54	1
0	43005	54.05	1
0	43006	54.05	0
0	43007	54.05	1
0	43031	54.1	1
0	43032	54.1	0
0	43033	54.1	1
0	43034	54.1	1
0	43035	54.1	0
0	43036	54.1	1
0	43066	54.15	1
0	43067	54.15	0
0	43068	54.15	1
0	43089	54.2	1
0	43090	54.2	0
0	43091	54.2	1
0	43092	54.2	1
0	43093	54.2	0
0	43094	54.2	1
0	43163	54.25	1
0	43164	54.25	0
0	43165	54.25	1
0	43186	54.3	1
0	43187	54.3	0
0	43188	54.3	1
0	43189	54.3	1
0	43190	54.3	0
0	43191	54.3	1
0	43216	54.35	1
0	43217	54.35	0
0	43218	54.35	1
0	43262	54.4	1
0	43263	54.4	0
0	43264	54.4	1
0	43265	54.4	1
0	43266	54.4	0
0	43267	54.4	1
0	43292	54.45	1
0	43293	54.45	0
0	43294	54.45	1
0	43315	54.5	1
0	43316	54.5	0
0	43317	54.5	1
0	43318	54.5	1
0	43319	54.5	0
0	43320	54.5	1
0	43345	54.55	1
0	43346	54.55	0
0	43347	54.55	1
0	43368	54.6	1
0	43369	54.6	0
0	43370	54.6	1
0	43371	54.6	1
0	43372	54.6	0
0	43373	54.6	1
0	43398	54.65	1
0	43399	54.65	0
0	43400	54.65	1
0	43421	54.7	1
0	43422	54.7	0
0	43423	54.7	1
0	43424	54.7	1
0	43425	54.7	0
0	43426	54.7	1
0	43451	54.75	1
0	43452	54.75	0
0	43453	54.75	1
0	43497	54.8	1
0	43498	54.8	0
0	43499	54.8	1
0	43500	54.8	1
0	43501	54.8	0
0	43502	54.8	1
0	43527	54.85	1
0	43528	54.85	0
0	43529	54.85	1
0	43550	54.9	1
0	43551	54.9	0
0	43552	54.9	1
0	43553	54.9	1
0	43554	54.9	0
0	43555	54.9	1
0	43597	54.95	1
0	43598	54.95	0
0	43599	54.95	1
0	43620	55	1
0	43621	55	0
0	43622	55	1
0	43623	55	1
0	43624	55	0
0	43625	55	1
0	43650	55.05	1
0	43651	55.05	0
0	43652	55.05	1
0	43676	55.1	1
0	43677	55.1	0
0	43678	55.1	1
0	43679	55.1	1
0	43680	55.1	0
0	43681	55.1	1
0	43711	55.15	1
0	43712	55.15	0
0	43713	55.15	1
0	43734	55.2	1
0	43735	55.2	0
0	43736	55.2	1
0	43737	55.2	1
0	43738	55.2	0
0	43739	55.2	1
0	43764	55.25	1
0	43765	55.25	0
0	43766	55.25	1
0	43787	55.3	1
0	43788	55.3	0
0	43789	55.3	1
0	43790	55.3	1
0	43791	55.3	0
0	43792	55.3	1
0	43861	55.35	1
0	43862	55.35	0
0	43863	55.35	1
0	43884	55.4	1
0	43885	55.4	0
0	43886	55.4	1
0	43887	55.4	1
0	43888	55.4	0
0	43889	55.4	1
0	43914	55.45	1
0	43915	55.45	0
0	43916	55.45	1
0	43960	55.5	1
0	43961	55.5	0
0	43962	55.5	1
0	43963	55.5	1
0	43964	55.5	0
0	43965	55.5	1
0	43990	55.55	1
0	43991	55.55	0
0	43992	55.55	1
0	44013	55.6	1
0	44014	55.6	0
0	44015	55.6	1
0	44016	55.6	1
0	44017	55.6	0
0	44018	55.6	1
0	44043	55.65	1
0	44044	55.65	0
0	44045	55.65	1
0	44066	55.7	1
0	44067	55.7	0
0	44068	55.7	1
0	44069	55.7	1
0	44070	55.7	0
0	44071	55.7	1
0	44096	55.75	1
0	44097	55.75	0
0	44098	55.75	1
0	44119	55.8	1
0	44120	55.8	0
0	44121	55.8	1
0	44122	55.8	1
0	44123	55.8	0
0	44124	55.8	1
0	44149	55.85	1
0	44150	55.85	0
0	44151	55.85	1
0	44195	55.9	1
0	44196	55.9	0
0	44197	55.9	1
0	44198	55.9	1
0	44199	55.9	0
0	44200	55.9	1
0	44225	55.95	1
0	44226	55.95	0
0	44227	55.95	1
0	44248	56	1
0	44249	56	0
0	44250	56	1
0	44251	56	1
0	44252	56	0
0	44253	56	1
0	44295	56.05	1
0	44296	56.05	0
0	44297	56.05	1
0	44321	56.1	1
0	44322	56.1	0
0	44323	56.1	1
0	44324	56.1	1
0	44325	56.1	0
0	44326	56.1	1
0	44356	56.15	1
0	44357	56.15	0
0	44358	56.15	1
0	44379	56.2	1
0	44380	56.2	0
0	44381	56.2	1
0	44382	56.2	1
0	44383	56.2	0
0	44384	56.2	1
0	44409	56.25	1
0	44410	56.25	0
0	44411	56.25	1
0	44432	56.3	1
0	44433	56.3	0
0	44434	56.3	1
0	44435	56.3	1
0	44436	56.3	0
0	44437	56.3	1
0	44462	56.35	1
0	44463	56.35	0
0	44464	56.35	1
0	44485	56.4	1
0	44486	56.4	0
0	44487	56.4	1
0	44488	56.4	1
0	44489	56.4	0
0	44490	56.4	1
0	44559	56.45	1
0	44560	56.45	0
0	44561	56.45	1
0	44585	56.5	1
0	44586	56.5	0
0	44587	56.5	1
0	44588	56.5	1
0	44589	56.5	0
0	44590	56.5	1
0	44615	56.55	1
0	44616	56.55	0
0	44617	56.55	1
0	44661	56.6	1
0	44662	56.6	0
0	44663	56.6	1
0	44664	56.6	1
0	44665	56.6	0
0	44666	56.6	1
0	44691	56.65	1
0	44692	56.65	0
0	44693	56.65	1
0	44714	56.7	1
0	44715	56.7	0
0	44716	56.7	1
0	44717	56.7	1
0	44718	56.7	0
0	44719	56.7	1
0	44744	56.75	1
0	44745	56.75	0
0	44746	56.75	1
0	44767	56.8	1
0	44768	56.8	0
0	44769	56.8	1
0	44770	56.8	1
0	44771	56.8	0
0	44772	56.8	1
0	44797	56.85	1
0	44798	56.85	0
0	44799	56.85	1
0	44820	56.9	1
0	44821	56.9	0
0	44822	56.9	1
0	44823	56.9	1
0	44824	56.9	0
0	44825	56.9	1
0	44850	56.95	1
0	44851	56.95	0
0	44852	56.95	1
0	44878	57	1
0	44879	57	0
0	44880	57	1
0	44881	57	1
0	44882	57	0
0	44883	57	1
0	44908	57.05	1
0	44909	57.05	0
0	44910	57.05	1
0	44934	57.1	1
0	44935	57.1	0
0	44936	57.1	1
0	44937	57.1	1
0	44938	57.1	0
0	44939	57.1	1
0	44969	57.15	1
0	44970	57.15	0
0	44971	57.15	1
0	44992	57.2	1
0	44993	57.2	0
0	44994	57.2	1
0	44995	57.2	1
0	44996	57.2	0
0	44997	57.2	1
0	45022	57.25	1
0	45023	57.25	0
0	45024	57.25	1
0	45045	57.3	1
0	45046	57.3	0
0	45047	57.3	1
0	45048	57.3	1
0	45049	57.3	0
0	45050	57.3	1
0	45075	57.35	1
0	45076	57.35	0
0	45077	57.35	1
0	45098	57.4	1
0	45099	57.4	0
0	45100	57.4	1
0	45101	57.4	1
0	45102	57.4	0
0	45103	57.4	1
0	45128	57.45	1
0	45129	57.45	0
0	45130	57.45	1
0	45151	57.5	1
0	45152	57.5	0
0	45153	57.5	1
0	45154	57.5	1
0	45155	57.5	0
0	45156	57.5	1
0	45181	57.55	1
0	45182	57.55	0
0	45183	57.55	1
0	45204	57.6	1
0	45205	57.6	0
0	45206	57.6	1
0	45207	57.6	1
0	45208	57.6	0
0	45209	57.6	1
0	45234	57.65	1
0	45235	57.65	0
0	45236	57.65	1
0	45257	57.7	1
0	45258	57.7	0
0	45259	57.7	1
0	45260	57.7	1
0	45261	57.7	0
0	45262	57.7	1
0	45287	57.75	1
0	45288	57.75	0
0	45289	57.75	1
0	45310	57.8	1
0	45311	57.8	0
0	45312	57.8	1
0	45313	57.8	1
0	45314	57.8	0
0	45315	57.8	1
0	45340	57.85	1
0	45341	57.85	0
0	45342	57.85	1
0	45363	57.9	1
0	45364	57.9	0
0	45365	57.9	1
0	45366	57.9	1
0	45367	57.9	0
0	45368	57.9	1
0	45393	57.95	1
0	45394	57.95	0
0	45395	57.95	1
0	45416	58	1
0	45417	58	0
0	45418	58	1
0	45419	58	1
0	45420	58	0
0	45421	58	1
0	45446	58.05	1
0	45447	58.05	0
0	45448	58.05	1
0	45472	58.1	1
0	45473	58.1	0
0	45474	58.1	1
0	45475	58.1	1
0	45476	58.1	0
0	45477	58.1	1
0	45507	58.15	1
0	45508	58.15	0
0	45509	58.15	1
0	45553	58.2	1
0	45554	58.2	0
0	45555	58.2	1
0	45556	58.2	1
0	45557	58.2	0
0	45558	58.2	1
0	45583	58.25	1
0	45584	58.25	0
0	45585	58.25	1
0	45606	58.3	1
0	45607	58.3	0
0	45608	58.3	1
0	45609	58.3	1
0	45610	58.3	0
0	45611	58.3	1
0	45677	58.35	1
0	45678	58.35	0
0	45679	58.35	1
0	45708	58.4	1
0	45709	58.4	0
0	45710	58.4	1
0	45711	58.4	1
0	45712	58.4	0
0	45713	58.4	1
0	45738	58.45	1
0	45739	58.45	0
0	45740	58.45	1
0	45761	58.5	1
0	45762	58.5	0
0	45763	58.5	1
0	45764	58.5	1
0	45765	58.5	0
0	45766	58.5	1
0	45791	58.55	1
0	45792	58.55	0
0	45793	58.55	1
0	45814	58.6	1
0	45815	58.6	0
0	45816	58.6	1
0	45817	58.6	1
0	45818	58.6	0
0	45819	58.6	1
0	45844	58.65	1
0	45845	58.65	0
0	45846	58.65	1
0	45867	58.7	1
0	45868	58.7	0
0	45869	58.7	1
0	45870	58.7	1
0	45871	58.7	0
0	45872	58.7	1
0	45920	58.75	1
0	45921	58.75	0
0	45922	58.75	1
0	45943	58.8	1
0	45944	58.8	0
0	45945	58.8	1
0	45946	58.8	1
0	45947	58.8	0
0	45948	58.8	1
0	45973	58.85	1
0	45974	58.85	0
0	45975	58.85	1
0	46035	58.9	1
0	46036	58.9	0
0	46037	58.9	1
0	46038	58.9	1
0	46039	58.9	0
0	46040	58.9	1
0	46065	58.95	1
0	46066	58.95	0
0	46067	58.95	1
0	46088	59	1
0	46089	59	0
0	46090	59	1
0	46091	59	1
0	46092	59	0
0	46093	59	1
0	46118	59.05	1
0	46119	59.05	0
0	46120	59.05	1
0	46144	59.1	1
0	46145	59.1	0
0	46146	59.1	1
0	46147	59.1	1
0	46148	59.1	0
0	46149	59.1	1
0	46179	59.15	1
0	46180	59.15	0
0	46181	59.15	1
0	46202	59.2	1
0	46203	59.2	0
0	46204	59.2	1
0	46205	59.2	1
0	46206	59.2	0
0	46207	59.2	1
0	46232	59.25	1
0	46233	59.25	0
0	46234	59.25	1
0	46272	59.3	1
0	46273	59.3	0
0	46274	59.3	1
0	46275	59.3	1
0	46276	59.3	0
0	46277	59.3	1
0	46302	59.35	1
0	46303	59.35	0
0	46304	59.35	1
0	46325	59.4	1
0	46326	59.4	0
0	46327	59.4	1
0	46328	59.4	1
0	46329	59.4	0
0	46330	59.4	1
0	46412	59.45	1
0	46413	59.45	0
0	46414	59.45	1
0	46443	59.5	1
0	46444	59.5	0
0	46445	59.5	1
0	46446	59.5	1
0	46447	59.5	0
0	46448	59.5	1
0	46473	59.55	1
0	46474	59.55	0
0	46475	59.55	1
0	46496	59.6	1
0	46497	59.6	0
0	46498	59.6	1
0	46499	59.6	1
0	46500	59.6	0
0	46501	59.6	1
0	46526	59.65	1
0	46527	59.65	0
0	46528	59.65	1
0	46549	59.7	1
0	46550	59.7	0
0	46551	59.7	1
0	46552	59.7	1
0	46553	59.7	0
0	46554	59.7	1
0	46579	59.75	1
0	46580	59.75	0
0	46581	59.75	1
0	46602	59.8	1
0	46603	59.8	0
0	46604	59.8	1
0	46605	59.8	1
0	46606	59.8	0
0	46607	59.8	1
0	46655	59.85	1
0	46656	59.85	0
0	46657	59.85	1
0	46678	59.9	1
0	46679	59.9	0
0	46680	59.9	1
0	46681	59.9	1
0	46682	59.9	0
0	46683	59.9	1
0	46708	59.95	1
0	46709	59.95	0
0	46710	59.95	1
0	46748	60	1
0	46749	60	0
0	46750	60	1
0	46751	60	1
0	46752	60	0
0	46753	60	1
0	46778	60.05	1
0	46779	60.05	0
0	46780	60.05	1
0	46804	60.1	1
0	46805	60.1	0
0	46806	60.1	1
0	46807	60.1	1
0	46808	60.1	0
0	46809	60.1	1
0	46839	60.15	1
0	46840	60.15	0
0	46841	60.15	1
1	41749	52.1	-nan
1	41750	52.1	-nan
1	41751	52.1	-nan
1	42377	53.1	-nan
1	42378	53.1	-nan
1	42379	53.1	-nan
1	43028	54.1	-nan
1	43029	54.1	-nan
1	43030	54.1	-nan
1	43673	55.1	-nan
1	43674	55.1	-nan
1	43675	55.1	-nan
1	44318	56.1	-nan
1	44319	56.1	-nan
1	44320	56.1	-nan
1	44931	57.1	-nan
1	44932	57.1	-nan
1	44933	57.1	-nan
1	45469	58.1	-nan
1	45470	58.1	-nan
1	45471	58.1	-nan
1	46141	59.1	-nan
1	46142	59.1	-nan
1	46143	59.1	-nan
1	46801	60.1	-nan
1	46802	60.1	-nan
1	46803	60.1	-nan
2	42076	52.583626728067	12126
2	42446	53.133626728067	12267
2	43150	54.233626728067	12408
2	43848	55.333626728067	12549
2	44546	56.433626728067	12690
2	45672	58.347466728067	12831
2	46027	58.883626728067	12972
2	46388	59.433626728067	13113
2	46407	59.447466728067	13254
3	42076	52.583626728067	12126
3	42446	53.133626728067	12267
3	43150	54.233626728067	12408
3	43848	55.333626728067	12549
3	44546	56.433626728067	12690
3	45672	58.347466728067	12831
3	46027	58.883626728067	12972
3	46388	59.433626728067	13113
3	46407	59.447466728067	13254

