version 2
run SteadyWithMsg-0-20190905-22:58:37-23324
attr configname SteadyWithMsg
attr datetime 20190905-22:58:37
attr experiment SteadyWithMsg
attr inifile SimV2.ini
attr iterationvars ""
attr iterationvarsf ""
attr measurement ""
attr network NetworkTormV2
attr processid 23324
attr repetition 0
attr replication #0
attr resultdir results
attr runnumber 0
attr seedset 0
param **.application.dataGenerationInterval 4s
param **.mobility.traceFile "\"paths/Steady1.movements\""
param **.numNodes 2
param **.application.usedRNG 1
param **.application.dataGenerationInterval 1ms
param **.application.dataSizeInBytes 10
param **.application.ttl 999999s
param **application.destinationAddr "\"Wf:00:00:00:00:02\""
param **application.destinationBTAddr "\"Bt:00:00:00:00:02\""
param **application.nodesThatGen true
param **application.nodesGenMsg "\"0\""
param **application.startMultipleMsg true
param **application.numMultipleMsg 100
param **application.hopsListSize 50
param **.routingLayer "\"RoutingLayer\""
param **.routing.maximumCacheSize 5000byte
param **.routing.maximumHopCount 25
param **.routing.useTTL false
param **.neighboring.antiEntropyInterval 200ms
param **.neighboring.maximumRandomBackoffDuration 1s
param **.neighboring.delayPerDataMsg 0.1
param **neighboring.usedRNG 2
param **.neighboring.GWAddr "\"02:00:00:00:00:03\""
param **.neighboring.sendWifiFirst true
param **.wirelessIfc.wirelessRange 15m
param **.wirelessIfc.neighbourScanInterval 50ms
param **.wirelessIfc.bandwidthBitRate 100000bps
param **.wirelessIfc.wirelessHeaderSize 32byte
param **.wirelessIfc.minSSI -90
param **.bluetoothIfc.wirelessRange 15m
param **.bluetoothIfc.neighbourScanInterval 100ms
param **.bluetoothIfc.bandwidthBitRate 100000bps
param **.bluetoothIfc.wirelessHeaderSize 16byte
param **.bluetoothIfc.minSSI -90
param **.mobilityType "\"BonnMotionMobility\""
param **.mobility.traceFile "\"paths/Moves2.movements\""
param **.mobility.nodeId -1

vector 0 NetworkTormV2 neighbourhoodSize:vector ETV
attr source neighbourhoodSize
vector 1 NetworkTormV2 deliveryRatio:vector ETV
attr source sum(totalDataBytesReceived)/sum(totalDataBytesReceivableByAllNodes)
vector 2 NetworkTormV2 dataBytesReceivedSum:vector ETV
attr source sum(dataBytesReceived)
vector 3 NetworkTormV2 totalBytesReceivedSum:vector ETV
attr source sum(totalBytesReceived)
0	7	0.05	1
0	8	0.05	1
0	14	0.1	1
0	15	0.1	1
0	16	0.1	1
0	17	0.1	1
0	27	0.15	1
0	28	0.15	1
0	33	0.2	1
0	34	0.2	1
0	35	0.2	1
0	36	0.2	1
0	45	0.25	1
0	46	0.25	1
0	51	0.3	1
0	52	0.3	1
0	53	0.3	1
0	54	0.3	1
0	63	0.35	1
0	64	0.35	1
0	69	0.4	1
0	70	0.4	1
0	71	0.4	1
0	72	0.4	1
0	81	0.45	1
0	82	0.45	1
0	87	0.5	1
0	88	0.5	1
0	89	0.5	1
0	90	0.5	1
0	99	0.55	1
0	100	0.55	1
0	105	0.6	1
0	106	0.6	1
0	107	0.6	1
0	108	0.6	1
0	117	0.65	1
0	118	0.65	1
0	123	0.7	1
0	124	0.7	1
0	125	0.7	1
0	126	0.7	1
0	135	0.75	1
0	136	0.75	1
0	141	0.8	1
0	142	0.8	1
0	143	0.8	1
0	144	0.8	1
0	153	0.85	1
0	154	0.85	1
0	159	0.9	1
0	160	0.9	1
0	161	0.9	1
0	162	0.9	1
0	171	0.95	1
0	172	0.95	1
0	177	1	1
0	178	1	1
0	179	1	1
0	180	1	1
0	189	1.05	1
0	190	1.05	1
0	195	1.1	1
0	196	1.1	1
0	197	1.1	1
0	198	1.1	1
0	245	1.15	1
0	246	1.15	1
0	251	1.2	1
0	252	1.2	1
0	253	1.2	1
0	254	1.2	1
0	263	1.25	1
0	264	1.25	1
0	269	1.3	1
0	270	1.3	1
0	271	1.3	1
0	272	1.3	1
0	281	1.35	1
0	282	1.35	1
0	313	1.4	1
0	314	1.4	1
0	315	1.4	1
0	316	1.4	1
0	325	1.45	1
0	326	1.45	1
0	331	1.5	1
0	332	1.5	1
0	333	1.5	1
0	334	1.5	1
0	343	1.55	1
0	344	1.55	1
0	375	1.6	1
0	376	1.6	1
0	377	1.6	1
0	378	1.6	1
0	387	1.65	1
0	388	1.65	1
0	393	1.7	1
0	394	1.7	1
0	395	1.7	1
0	396	1.7	1
0	405	1.75	1
0	406	1.75	1
0	411	1.8	1
0	412	1.8	1
0	413	1.8	1
0	414	1.8	1
0	449	1.85	1
0	450	1.85	1
0	455	1.9	1
0	456	1.9	1
0	457	1.9	1
0	458	1.9	1
0	467	1.95	1
0	468	1.95	1
0	473	2	1
0	474	2	1
0	475	2	1
0	476	2	1
0	485	2.05	1
0	486	2.05	1
0	517	2.1	1
0	518	2.1	1
0	519	2.1	1
0	520	2.1	1
0	529	2.15	1
0	530	2.15	1
0	535	2.2	1
0	536	2.2	1
0	537	2.2	1
0	538	2.2	1
0	547	2.25	1
0	548	2.25	1
0	553	2.3	1
0	554	2.3	1
0	555	2.3	1
0	556	2.3	1
0	591	2.35	1
0	592	2.35	1
0	597	2.4	1
0	598	2.4	1
0	599	2.4	1
0	600	2.4	1
0	609	2.45	1
0	610	2.45	1
0	615	2.5	1
0	616	2.5	1
0	617	2.5	1
0	618	2.5	1
0	627	2.55	1
0	628	2.55	1
0	659	2.6	1
0	660	2.6	1
0	661	2.6	1
0	662	2.6	1
0	671	2.65	1
0	672	2.65	1
0	677	2.7	1
0	678	2.7	1
0	679	2.7	1
0	680	2.7	1
0	689	2.75	1
0	690	2.75	1
0	695	2.8	1
0	696	2.8	1
0	697	2.8	1
0	698	2.8	1
0	733	2.85	1
0	734	2.85	1
0	739	2.9	1
0	740	2.9	1
0	741	2.9	1
0	742	2.9	1
0	751	2.95	1
0	752	2.95	1
0	757	3	1
0	758	3	1
0	759	3	1
0	760	3	1
0	769	3.05	1
0	770	3.05	1
0	801	3.1	1
0	802	3.1	1
0	803	3.1	1
0	804	3.1	1
0	813	3.15	1
0	814	3.15	1
0	819	3.2	1
0	820	3.2	1
0	821	3.2	1
0	822	3.2	1
0	831	3.25	1
0	832	3.25	1
0	837	3.3	1
0	838	3.3	1
0	839	3.3	1
0	840	3.3	1
0	875	3.35	1
0	876	3.35	1
0	881	3.4	1
0	882	3.4	1
0	883	3.4	1
0	884	3.4	1
0	893	3.45	1
0	894	3.45	1
0	899	3.5	1
0	900	3.5	1
0	901	3.5	1
0	902	3.5	1
0	911	3.55	1
0	912	3.55	1
0	943	3.6	1
0	944	3.6	1
0	945	3.6	1
0	946	3.6	1
0	955	3.65	1
0	956	3.65	1
0	961	3.7	1
0	962	3.7	1
0	963	3.7	1
0	964	3.7	1
0	973	3.75	1
0	974	3.75	1
0	979	3.8	1
0	980	3.8	1
0	981	3.8	1
0	982	3.8	1
0	1017	3.85	1
0	1018	3.85	1
0	1023	3.9	1
0	1024	3.9	1
0	1025	3.9	1
0	1026	3.9	1
0	1035	3.95	1
0	1036	3.95	1
0	1041	4	1
0	1042	4	1
0	1043	4	1
0	1044	4	1
0	1053	4.05	1
0	1054	4.05	1
0	1086	4.1	1
0	1087	4.1	1
0	1088	4.1	1
0	1089	4.1	1
0	1099	4.15	1
0	1100	4.15	1
0	1105	4.2	1
0	1106	4.2	1
0	1107	4.2	1
0	1108	4.2	1
0	1117	4.25	1
0	1118	4.25	1
0	1123	4.3	1
0	1124	4.3	1
0	1125	4.3	1
0	1126	4.3	1
0	1173	4.35	1
0	1174	4.35	1
0	1179	4.4	1
0	1180	4.4	1
0	1181	4.4	1
0	1182	4.4	1
0	1191	4.45	1
0	1192	4.45	1
0	1197	4.5	1
0	1198	4.5	1
0	1199	4.5	1
0	1200	4.5	1
0	1209	4.55	1
0	1210	4.55	1
0	1241	4.6	1
0	1242	4.6	1
0	1243	4.6	1
0	1244	4.6	1
0	1253	4.65	1
0	1254	4.65	1
0	1259	4.7	1
0	1260	4.7	1
0	1261	4.7	1
0	1262	4.7	1
0	1271	4.75	1
0	1272	4.75	1
0	1277	4.8	1
0	1278	4.8	1
0	1279	4.8	1
0	1280	4.8	1
0	1315	4.85	1
0	1316	4.85	1
0	1321	4.9	1
0	1322	4.9	1
0	1323	4.9	1
0	1324	4.9	1
0	1333	4.95	1
0	1334	4.95	1
0	1339	5	1
0	1340	5	1
0	1341	5	1
0	1342	5	1
0	1351	5.05	1
0	1352	5.05	1
0	1383	5.1	1
0	1384	5.1	1
0	1385	5.1	1
0	1386	5.1	1
0	1395	5.15	1
0	1396	5.15	1
0	1401	5.2	1
0	1402	5.2	1
0	1403	5.2	1
0	1404	5.2	1
0	1413	5.25	1
0	1414	5.25	1
0	1419	5.3	1
0	1420	5.3	1
0	1421	5.3	1
0	1422	5.3	1
0	1457	5.35	1
0	1458	5.35	1
0	1463	5.4	1
0	1464	5.4	1
0	1465	5.4	1
0	1466	5.4	1
0	1475	5.45	1
0	1476	5.45	1
0	1481	5.5	1
0	1482	5.5	1
0	1483	5.5	1
0	1484	5.5	1
0	1493	5.55	1
0	1494	5.55	1
0	1525	5.6	1
0	1526	5.6	1
0	1527	5.6	1
0	1528	5.6	1
0	1537	5.65	1
0	1538	5.65	1
0	1543	5.7	1
0	1544	5.7	1
0	1545	5.7	1
0	1546	5.7	1
0	1555	5.75	1
0	1556	5.75	1
0	1561	5.8	1
0	1562	5.8	1
0	1563	5.8	1
0	1564	5.8	1
0	1599	5.85	1
0	1600	5.85	1
0	1605	5.9	1
0	1606	5.9	1
0	1607	5.9	1
0	1608	5.9	1
0	1617	5.95	1
0	1618	5.95	1
0	1623	6	1
0	1624	6	1
0	1625	6	1
0	1626	6	1
0	1635	6.05	1
0	1636	6.05	1
0	1667	6.1	1
0	1668	6.1	1
0	1669	6.1	1
0	1670	6.1	1
0	1679	6.15	1
0	1680	6.15	1
0	1685	6.2	1
0	1686	6.2	1
0	1687	6.2	1
0	1688	6.2	1
0	1697	6.25	1
0	1698	6.25	1
0	1703	6.3	1
0	1704	6.3	1
0	1705	6.3	1
0	1706	6.3	1
0	1741	6.35	1
0	1742	6.35	1
0	1747	6.4	1
0	1748	6.4	1
0	1749	6.4	1
0	1750	6.4	1
0	1759	6.45	1
0	1760	6.45	1
0	1765	6.5	1
0	1766	6.5	1
0	1767	6.5	1
0	1768	6.5	1
0	1777	6.55	1
0	1778	6.55	1
0	1809	6.6	1
0	1810	6.6	1
0	1811	6.6	1
0	1812	6.6	1
0	1821	6.65	1
0	1822	6.65	1
0	1827	6.7	1
0	1828	6.7	1
0	1829	6.7	1
0	1830	6.7	1
0	1839	6.75	1
0	1840	6.75	1
0	1845	6.8	1
0	1846	6.8	1
0	1847	6.8	1
0	1848	6.8	1
0	1883	6.85	1
0	1884	6.85	1
0	1889	6.9	1
0	1890	6.9	1
0	1891	6.9	1
0	1892	6.9	1
0	1901	6.95	1
0	1902	6.95	1
0	1907	7	1
0	1908	7	1
0	1909	7	1
0	1910	7	1
0	1919	7.05	1
0	1920	7.05	1
0	1951	7.1	1
0	1952	7.1	1
0	1953	7.1	1
0	1954	7.1	1
0	1963	7.15	1
0	1964	7.15	1
0	1969	7.2	1
0	1970	7.2	1
0	1971	7.2	1
0	1972	7.2	1
0	1981	7.25	1
0	1982	7.25	1
0	1987	7.3	1
0	1988	7.3	1
0	1989	7.3	1
0	1990	7.3	1
0	2025	7.35	1
0	2026	7.35	1
0	2031	7.4	1
0	2032	7.4	1
0	2033	7.4	1
0	2034	7.4	1
0	2043	7.45	1
0	2044	7.45	1
0	2049	7.5	1
0	2050	7.5	1
0	2051	7.5	1
0	2052	7.5	1
0	2061	7.55	1
0	2062	7.55	1
0	2093	7.6	1
0	2094	7.6	1
0	2095	7.6	1
0	2096	7.6	1
0	2105	7.65	1
0	2106	7.65	1
0	2111	7.7	1
0	2112	7.7	1
0	2113	7.7	1
0	2114	7.7	1
0	2123	7.75	1
0	2124	7.75	1
0	2129	7.8	1
0	2130	7.8	1
0	2131	7.8	1
0	2132	7.8	1
0	2167	7.85	1
0	2168	7.85	1
0	2173	7.9	1
0	2174	7.9	1
0	2175	7.9	1
0	2176	7.9	1
0	2185	7.95	1
0	2186	7.95	1
0	2191	8	1
0	2192	8	1
0	2193	8	1
0	2194	8	1
0	2203	8.05	1
0	2204	8.05	1
0	2236	8.1	1
0	2237	8.1	1
0	2238	8.1	1
0	2239	8.1	1
0	2249	8.15	1
0	2250	8.15	1
0	2255	8.2	1
0	2256	8.2	1
0	2257	8.2	1
0	2258	8.2	1
0	2267	8.25	1
0	2268	8.25	1
0	2273	8.3	1
0	2274	8.3	1
0	2275	8.3	1
0	2276	8.3	1
0	2323	8.35	1
0	2324	8.35	1
0	2329	8.4	1
0	2330	8.4	1
0	2331	8.4	1
0	2332	8.4	1
0	2341	8.45	1
0	2342	8.45	1
0	2347	8.5	1
0	2348	8.5	1
0	2349	8.5	1
0	2350	8.5	1
0	2359	8.55	1
0	2360	8.55	1
0	2391	8.6	1
0	2392	8.6	1
0	2393	8.6	1
0	2394	8.6	1
0	2403	8.65	1
0	2404	8.65	1
0	2409	8.7	1
0	2410	8.7	1
0	2411	8.7	1
0	2412	8.7	1
0	2421	8.75	1
0	2422	8.75	1
0	2427	8.8	1
0	2428	8.8	1
0	2429	8.8	1
0	2430	8.8	1
0	2465	8.85	1
0	2466	8.85	1
0	2471	8.9	1
0	2472	8.9	1
0	2473	8.9	1
0	2474	8.9	1
0	2483	8.95	1
0	2484	8.95	1
0	2489	9	1
0	2490	9	1
0	2491	9	1
0	2492	9	1
0	2501	9.05	1
0	2502	9.05	1
0	2533	9.1	1
0	2534	9.1	1
0	2535	9.1	1
0	2536	9.1	1
0	2545	9.15	1
0	2546	9.15	1
0	2551	9.2	1
0	2552	9.2	1
0	2553	9.2	1
0	2554	9.2	1
0	2563	9.25	1
0	2564	9.25	1
0	2595	9.3	1
0	2596	9.3	1
0	2597	9.3	1
0	2598	9.3	1
0	2607	9.35	1
0	2608	9.35	1
0	2613	9.4	1
0	2614	9.4	1
0	2615	9.4	1
0	2616	9.4	1
0	2625	9.45	1
0	2626	9.45	1
0	2631	9.5	1
0	2632	9.5	1
0	2633	9.5	1
0	2634	9.5	1
0	2669	9.55	1
0	2670	9.55	1
0	2675	9.6	1
0	2676	9.6	1
0	2677	9.6	1
0	2678	9.6	1
0	2687	9.65	1
0	2688	9.65	1
0	2693	9.7	1
0	2694	9.7	1
0	2695	9.7	1
0	2696	9.7	1
0	2705	9.75	1
0	2706	9.75	1
0	2737	9.8	1
0	2738	9.8	1
0	2739	9.8	1
0	2740	9.8	1
0	2749	9.85	1
0	2750	9.85	1
0	2755	9.9	1
0	2756	9.9	1
0	2757	9.9	1
0	2758	9.9	1
0	2767	9.95	1
0	2768	9.95	1
0	2773	10	1
0	2774	10	1
0	2775	10	1
0	2776	10	1
1	13	0.1	-nan
1	1085	4.1	-nan
1	2235	8.1	-nan
2	238	1.11456	36
2	1166	4.31456	72
2	2316	8.31456	108
3	238	1.11456	36
3	1166	4.31456	72
3	2316	8.31456	108

