version 2
run T1-0-20190910-23:34:35-7919
attr configname T1
attr datetime 20190910-23:34:35
attr experiment T1
attr inifile SimV2.ini
attr iterationvars ""
attr iterationvarsf ""
attr measurement ""
attr network NetworkTormV2
attr processid 7919
attr repetition 0
attr replication #0
attr resultdir results
attr runnumber 0
attr seedset 0
param **.mobility.traceFile "\"paths/T1.movements\""
param **.numNodes 3
param **.wirelessIfc.wirelessRange 25m
param **.bluetoothIfc.wirelessRange 25m
param **.numNodes 2
param **.application.usedRNG 1
param **.application.dataGenerationInterval 1ms
param **.application.dataSizeInBytes 10
param **.application.ttl 999999s
param **application.destinationAddr "\"Wf:00:00:00:00:02\""
param **application.destinationBTAddr "\"Bt:00:00:00:00:02\""
param **application.nodesThatGen true
param **application.nodesGenMsg "\"0\""
param **application.startMultipleMsg true
param **application.numMultipleMsg 100
param **application.hopsListSize 50
param **.routingLayer "\"RoutingLayer\""
param **.routing.maximumCacheSize 5000byte
param **.routing.maximumHopCount 25
param **.routing.useTTL false
param **.routing.waitBFsend 0.5
param **.neighboring.antiEntropyInterval 500ms
param **.neighboring.maximumRandomBackoffDuration 1s
param **.neighboring.delayPerDataMsg 0.1
param **neighboring.usedRNG 2
param **.neighboring.GWAddr "\"02:00:00:00:00:09\""
param **.neighboring.sendWifiFirst true
param **.neighboring.maxLengthGraph 20
param **.wirelessIfc.wirelessRange 15m
param **.wirelessIfc.neighbourScanInterval 50ms
param **.wirelessIfc.bandwidthBitRate 100000bps
param **.wirelessIfc.wirelessHeaderSize 32byte
param **.wirelessIfc.minSSI -90
param **.bluetoothIfc.wirelessRange 15m
param **.bluetoothIfc.neighbourScanInterval 100ms
param **.bluetoothIfc.bandwidthBitRate 100000bps
param **.bluetoothIfc.wirelessHeaderSize 16byte
param **.bluetoothIfc.minSSI -90
param **.mobilityType "\"BonnMotionMobility\""
param **.mobility.traceFile "\"paths/Moves2.movements\""
param **.mobility.nodeId -1

vector 0 NetworkTormV2 neighbourhoodSize:vector ETV
attr source neighbourhoodSize
vector 1 NetworkTormV2 deliveryRatio:vector ETV
attr source sum(totalDataBytesReceived)/sum(totalDataBytesReceivableByAllNodes)
vector 2 NetworkTormV2 dataBytesReceivedSum:vector ETV
attr source sum(dataBytesReceived)
vector 3 NetworkTormV2 totalBytesReceivedSum:vector ETV
attr source sum(totalBytesReceived)
0	10	0.05	1
0	11	0.05	2
0	12	0.05	1
0	20	0.1	1
0	21	0.1	2
0	22	0.1	1
0	24	0.1	1
0	25	0.1	2
0	26	0.1	1
0	138	0.15	1
0	139	0.15	2
0	140	0.15	1
0	247	0.2	1
0	248	0.2	2
0	249	0.2	1
0	251	0.2	1
0	252	0.2	2
0	253	0.2	1
0	266	0.25	1
0	267	0.25	2
0	268	0.25	1
0	275	0.3	1
0	276	0.3	2
0	277	0.3	1
0	279	0.3	1
0	280	0.3	2
0	281	0.3	1
0	294	0.35	1
0	295	0.35	2
0	296	0.35	1
0	303	0.4	1
0	304	0.4	2
0	305	0.4	1
0	307	0.4	1
0	308	0.4	2
0	309	0.4	1
0	322	0.45	1
0	323	0.45	2
0	324	0.45	1
0	331	0.5	1
0	332	0.5	2
0	333	0.5	1
0	335	0.5	1
0	336	0.5	2
0	337	0.5	1
0	350	0.55	1
0	351	0.55	2
0	352	0.55	1
0	359	0.6	1
0	360	0.6	2
0	361	0.6	1
0	363	0.6	1
0	364	0.6	2
0	365	0.6	1
0	378	0.65	1
0	379	0.65	2
0	380	0.65	1
0	387	0.7	1
0	388	0.7	2
0	389	0.7	1
0	391	0.7	1
0	392	0.7	2
0	393	0.7	1
0	406	0.75	1
0	407	0.75	2
0	408	0.75	1
0	415	0.8	1
0	416	0.8	2
0	417	0.8	1
0	419	0.8	1
0	420	0.8	2
0	421	0.8	1
0	434	0.85	1
0	435	0.85	2
0	436	0.85	1
0	443	0.9	1
0	444	0.9	2
0	445	0.9	1
0	447	0.9	1
0	448	0.9	2
0	449	0.9	1
0	462	0.95	1
0	463	0.95	2
0	464	0.95	1
0	471	1	1
0	472	1	2
0	473	1	1
0	475	1	1
0	476	1	2
0	477	1	1
0	490	1.05	1
0	491	1.05	2
0	492	1.05	1
0	499	1.1	1
0	500	1.1	2
0	501	1.1	1
0	503	1.1	1
0	504	1.1	2
0	505	1.1	1
0	570	1.15	1
0	571	1.15	2
0	572	1.15	1
0	579	1.2	1
0	580	1.2	2
0	581	1.2	1
0	583	1.2	1
0	584	1.2	2
0	585	1.2	1
0	598	1.25	1
0	599	1.25	2
0	600	1.25	1
0	607	1.3	1
0	608	1.3	2
0	609	1.3	1
0	611	1.3	1
0	612	1.3	2
0	613	1.3	1
0	626	1.35	1
0	627	1.35	2
0	628	1.35	1
0	635	1.4	1
0	636	1.4	2
0	637	1.4	1
0	639	1.4	1
0	640	1.4	2
0	641	1.4	1
0	654	1.45	1
0	655	1.45	2
0	656	1.45	1
0	663	1.5	1
0	664	1.5	2
0	665	1.5	1
0	667	1.5	1
0	668	1.5	2
0	669	1.5	1
0	682	1.55	1
0	683	1.55	2
0	684	1.55	1
0	691	1.6	1
0	692	1.6	2
0	693	1.6	1
0	695	1.6	1
0	696	1.6	2
0	697	1.6	1
0	710	1.65	1
0	711	1.65	2
0	712	1.65	1
0	981	1.7	1
0	982	1.7	2
0	983	1.7	1
0	985	1.7	1
0	986	1.7	2
0	987	1.7	1
0	1040	1.75	1
0	1041	1.75	2
0	1042	1.75	1
0	1085	1.8	1
0	1086	1.8	2
0	1087	1.8	1
0	1089	1.8	1
0	1090	1.8	2
0	1091	1.8	1
0	1138	1.85	1
0	1139	1.85	2
0	1140	1.85	1
0	1187	1.9	1
0	1188	1.9	2
0	1189	1.9	1
0	1191	1.9	1
0	1192	1.9	2
0	1193	1.9	1
0	1236	1.95	1
0	1237	1.95	2
0	1238	1.95	1
0	1285	2	1
0	1286	2	2
0	1287	2	1
0	1289	2	1
0	1290	2	2
0	1291	2	1
0	1340	2.05	1
0	1341	2.05	2
0	1342	2.05	1
0	1383	2.1	1
0	1384	2.1	2
0	1385	2.1	1
0	1387	2.1	1
0	1388	2.1	2
0	1389	2.1	1
0	1442	2.15	1
0	1443	2.15	2
0	1444	2.15	1
0	1487	2.2	1
0	1488	2.2	2
0	1489	2.2	1
0	1491	2.2	1
0	1492	2.2	2
0	1493	2.2	1
0	1577	2.25	1
0	1578	2.25	2
0	1579	2.25	1
0	1626	2.3	1
0	1627	2.3	2
0	1628	2.3	1
0	1630	2.3	1
0	1631	2.3	2
0	1632	2.3	1
0	1675	2.35	1
0	1676	2.35	2
0	1677	2.35	1
0	1724	2.4	1
0	1725	2.4	2
0	1726	2.4	1
0	1728	2.4	1
0	1729	2.4	2
0	1730	2.4	1
0	1779	2.45	1
0	1780	2.45	2
0	1781	2.45	1
0	1822	2.5	1
0	1823	2.5	2
0	1824	2.5	1
0	1826	2.5	1
0	1827	2.5	2
0	1828	2.5	1
0	1881	2.55	1
0	1882	2.55	2
0	1883	2.55	1
0	1920	2.6	1
0	1921	2.6	2
0	1922	2.6	1
0	1924	2.6	1
0	1925	2.6	2
0	1926	2.6	1
0	1979	2.65	1
0	1980	2.65	2
0	1981	2.65	1
0	2024	2.7	1
0	2025	2.7	2
0	2026	2.7	1
0	2028	2.7	1
0	2029	2.7	2
0	2030	2.7	1
0	2077	2.75	1
0	2078	2.75	1
0	2079	2.75	0
0	2126	2.8	1
0	2127	2.8	1
0	2128	2.8	0
0	2130	2.8	1
0	2131	2.8	1
0	2132	2.8	0
0	2171	2.85	1
0	2172	2.85	1
0	2173	2.85	0
0	2218	2.9	1
0	2219	2.9	1
0	2220	2.9	0
0	2222	2.9	1
0	2223	2.9	1
0	2224	2.9	0
0	2273	2.95	1
0	2274	2.95	1
0	2275	2.95	0
0	2310	3	1
0	2311	3	1
0	2312	3	0
0	2314	3	1
0	2315	3	1
0	2316	3	0
0	2365	3.05	1
0	2366	3.05	1
0	2367	3.05	0
0	2408	3.1	1
0	2409	3.1	1
0	2410	3.1	0
0	2412	3.1	1
0	2413	3.1	1
0	2414	3.1	0
0	2423	3.15	1
0	2424	3.15	1
0	2425	3.15	0
0	2430	3.2	1
0	2431	3.2	1
0	2432	3.2	0
0	2434	3.2	1
0	2435	3.2	1
0	2436	3.2	0
0	2458	3.25	1
0	2459	3.25	1
0	2460	3.25	0
0	2465	3.3	1
0	2466	3.3	1
0	2467	3.3	0
0	2469	3.3	1
0	2470	3.3	1
0	2471	3.3	0
0	2480	3.35	1
0	2481	3.35	1
0	2482	3.35	0
0	2500	3.4	1
0	2501	3.4	1
0	2502	3.4	0
0	2504	3.4	1
0	2505	3.4	1
0	2506	3.4	0
0	2515	3.45	1
0	2516	3.45	1
0	2517	3.45	0
0	2522	3.5	1
0	2523	3.5	1
0	2524	3.5	0
0	2526	3.5	1
0	2527	3.5	1
0	2528	3.5	0
0	2537	3.55	1
0	2538	3.55	1
0	2539	3.55	0
0	2544	3.6	1
0	2545	3.6	1
0	2546	3.6	0
0	2548	3.6	1
0	2549	3.6	1
0	2550	3.6	0
0	2559	3.65	1
0	2560	3.65	1
0	2561	3.65	0
0	2566	3.7	1
0	2567	3.7	1
0	2568	3.7	0
0	2570	3.7	1
0	2571	3.7	1
0	2572	3.7	0
0	2581	3.75	1
0	2582	3.75	1
0	2583	3.75	0
0	2601	3.8	1
0	2602	3.8	1
0	2603	3.8	0
0	2605	3.8	1
0	2606	3.8	1
0	2607	3.8	0
0	2616	3.85	1
0	2617	3.85	1
0	2618	3.85	0
0	2623	3.9	1
0	2624	3.9	1
0	2625	3.9	0
0	2627	3.9	1
0	2628	3.9	1
0	2629	3.9	0
0	2651	3.95	1
0	2652	3.95	1
0	2653	3.95	0
0	2658	4	1
0	2659	4	1
0	2660	4	0
0	2662	4	1
0	2663	4	1
0	2664	4	0
0	2673	4.05	1
0	2674	4.05	1
0	2675	4.05	0
0	2680	4.1	1
0	2681	4.1	1
0	2682	4.1	0
0	2684	4.1	1
0	2685	4.1	1
0	2686	4.1	0
0	2695	4.15	1
0	2696	4.15	1
0	2697	4.15	0
0	2702	4.2	1
0	2703	4.2	1
0	2704	4.2	0
0	2706	4.2	1
0	2707	4.2	1
0	2708	4.2	0
0	2717	4.25	1
0	2718	4.25	1
0	2719	4.25	0
0	2724	4.3	1
0	2725	4.3	1
0	2726	4.3	0
0	2728	4.3	1
0	2729	4.3	1
0	2730	4.3	0
0	2752	4.35	1
0	2753	4.35	1
0	2754	4.35	0
0	2759	4.4	1
0	2760	4.4	1
0	2761	4.4	0
0	2763	4.4	1
0	2764	4.4	1
0	2765	4.4	0
0	2774	4.45	1
0	2775	4.45	1
0	2776	4.45	0
0	2794	4.5	1
0	2795	4.5	1
0	2796	4.5	0
0	2798	4.5	1
0	2799	4.5	1
0	2800	4.5	0
0	2809	4.55	1
0	2810	4.55	1
0	2811	4.55	0
0	2816	4.6	1
0	2817	4.6	1
0	2818	4.6	0
0	2820	4.6	1
0	2821	4.6	1
0	2822	4.6	0
0	2831	4.65	1
0	2832	4.65	1
0	2833	4.65	0
0	2838	4.7	1
0	2839	4.7	1
0	2840	4.7	0
0	2842	4.7	1
0	2843	4.7	1
0	2844	4.7	0
0	2853	4.75	1
0	2854	4.75	1
0	2855	4.75	0
0	2860	4.8	1
0	2861	4.8	1
0	2862	4.8	0
0	2864	4.8	1
0	2865	4.8	1
0	2866	4.8	0
0	2875	4.85	1
0	2876	4.85	1
0	2877	4.85	0
0	2895	4.9	1
0	2896	4.9	1
0	2897	4.9	0
0	2899	4.9	1
0	2900	4.9	1
0	2901	4.9	0
0	2910	4.95	1
0	2911	4.95	1
0	2912	4.95	0
0	2917	5	1
0	2918	5	1
0	2919	5	0
0	2921	5	1
0	2922	5	1
0	2923	5	0
0	2945	5.05	1
0	2946	5.05	1
0	2947	5.05	0
0	2952	5.1	1
0	2953	5.1	1
0	2954	5.1	0
0	2956	5.1	1
0	2957	5.1	1
0	2958	5.1	0
0	2967	5.15	1
0	2968	5.15	1
0	2969	5.15	0
0	2974	5.2	1
0	2975	5.2	1
0	2976	5.2	0
0	2978	5.2	1
0	2979	5.2	1
0	2980	5.2	0
0	2989	5.25	1
0	2990	5.25	1
0	2991	5.25	0
0	2996	5.3	1
0	2997	5.3	1
0	2998	5.3	0
0	3000	5.3	1
0	3001	5.3	1
0	3002	5.3	0
0	3011	5.35	1
0	3012	5.35	1
0	3013	5.35	0
0	3018	5.4	1
0	3019	5.4	1
0	3020	5.4	0
0	3022	5.4	1
0	3023	5.4	1
0	3024	5.4	0
0	3046	5.45	1
0	3047	5.45	1
0	3048	5.45	0
0	3053	5.5	1
0	3054	5.5	1
0	3055	5.5	0
0	3057	5.5	1
0	3058	5.5	1
0	3059	5.5	0
0	3068	5.55	1
0	3069	5.55	1
0	3070	5.55	0
0	3088	5.6	1
0	3089	5.6	1
0	3090	5.6	0
0	3092	5.6	1
0	3093	5.6	1
0	3094	5.6	0
0	3103	5.65	1
0	3104	5.65	1
0	3105	5.65	0
0	3110	5.7	1
0	3111	5.7	1
0	3112	5.7	0
0	3114	5.7	1
0	3115	5.7	1
0	3116	5.7	0
0	3125	5.75	1
0	3126	5.75	1
0	3127	5.75	0
0	3132	5.8	1
0	3133	5.8	1
0	3134	5.8	0
0	3136	5.8	1
0	3137	5.8	1
0	3138	5.8	0
0	3147	5.85	1
0	3148	5.85	1
0	3149	5.85	0
0	3154	5.9	1
0	3155	5.9	1
0	3156	5.9	0
0	3158	5.9	1
0	3159	5.9	1
0	3160	5.9	0
0	3169	5.95	1
0	3170	5.95	1
0	3171	5.95	0
0	3189	6	1
0	3190	6	1
0	3191	6	0
0	3193	6	1
0	3194	6	1
0	3195	6	0
0	3204	6.05	1
0	3205	6.05	1
0	3206	6.05	0
0	3211	6.1	1
0	3212	6.1	1
0	3213	6.1	0
0	3215	6.1	1
0	3216	6.1	1
0	3217	6.1	0
0	3239	6.15	1
0	3240	6.15	1
0	3241	6.15	0
0	3246	6.2	1
0	3247	6.2	1
0	3248	6.2	0
0	3250	6.2	1
0	3251	6.2	1
0	3252	6.2	0
0	3261	6.25	1
0	3262	6.25	1
0	3263	6.25	0
0	3268	6.3	1
0	3269	6.3	1
0	3270	6.3	0
0	3272	6.3	1
0	3273	6.3	1
0	3274	6.3	0
0	3283	6.35	1
0	3284	6.35	1
0	3285	6.35	0
0	3290	6.4	1
0	3291	6.4	1
0	3292	6.4	0
0	3294	6.4	1
0	3295	6.4	1
0	3296	6.4	0
0	3305	6.45	1
0	3306	6.45	1
0	3307	6.45	0
0	3312	6.5	1
0	3313	6.5	1
0	3314	6.5	0
0	3316	6.5	1
0	3317	6.5	1
0	3318	6.5	0
0	3340	6.55	1
0	3341	6.55	1
0	3342	6.55	0
0	3347	6.6	1
0	3348	6.6	1
0	3349	6.6	0
0	3351	6.6	1
0	3352	6.6	1
0	3353	6.6	0
0	3362	6.65	1
0	3363	6.65	1
0	3364	6.65	0
0	3382	6.7	1
0	3383	6.7	1
0	3384	6.7	0
0	3386	6.7	1
0	3387	6.7	1
0	3388	6.7	0
0	3397	6.75	1
0	3398	6.75	1
0	3399	6.75	0
0	3404	6.8	1
0	3405	6.8	1
0	3406	6.8	0
0	3408	6.8	1
0	3409	6.8	1
0	3410	6.8	0
0	3419	6.85	1
0	3420	6.85	1
0	3421	6.85	0
0	3426	6.9	1
0	3427	6.9	1
0	3428	6.9	0
0	3430	6.9	1
0	3431	6.9	1
0	3432	6.9	0
0	3441	6.95	1
0	3442	6.95	1
0	3443	6.95	0
0	3448	7	1
0	3449	7	1
0	3450	7	0
0	3452	7	1
0	3453	7	1
0	3454	7	0
0	3463	7.05	1
0	3464	7.05	1
0	3465	7.05	0
0	3483	7.1	1
0	3484	7.1	1
0	3485	7.1	0
0	3486	7.1	1
0	3487	7.1	1
0	3488	7.1	0
0	3497	7.15	1
0	3498	7.15	1
0	3499	7.15	0
0	3504	7.2	1
0	3505	7.2	1
0	3506	7.2	0
0	3507	7.2	1
0	3508	7.2	1
0	3509	7.2	0
0	3531	7.25	1
0	3532	7.25	1
0	3533	7.25	0
0	3538	7.3	1
0	3539	7.3	1
0	3540	7.3	0
0	3541	7.3	1
0	3542	7.3	1
0	3543	7.3	0
0	3552	7.35	1
0	3553	7.35	1
0	3554	7.35	0
0	3559	7.4	1
0	3560	7.4	1
0	3561	7.4	0
0	3562	7.4	1
0	3563	7.4	1
0	3564	7.4	0
0	3573	7.45	1
0	3574	7.45	1
0	3575	7.45	0
0	3580	7.5	1
0	3581	7.5	1
0	3582	7.5	0
0	3583	7.5	1
0	3584	7.5	1
0	3585	7.5	0
0	3594	7.55	1
0	3595	7.55	1
0	3596	7.55	0
0	3601	7.6	1
0	3602	7.6	1
0	3603	7.6	0
0	3604	7.6	1
0	3605	7.6	1
0	3606	7.6	0
0	3628	7.65	1
0	3629	7.65	1
0	3630	7.65	0
0	3635	7.7	1
0	3636	7.7	1
0	3637	7.7	0
0	3638	7.7	1
0	3639	7.7	1
0	3640	7.7	0
0	3649	7.75	1
0	3650	7.75	1
0	3651	7.75	0
0	3669	7.8	1
0	3670	7.8	1
0	3671	7.8	0
0	3672	7.8	1
0	3673	7.8	1
0	3674	7.8	0
0	3683	7.85	1
0	3684	7.85	1
0	3685	7.85	0
0	3690	7.9	1
0	3691	7.9	1
0	3692	7.9	0
0	3693	7.9	1
0	3694	7.9	1
0	3695	7.9	0
0	3704	7.95	1
0	3705	7.95	1
0	3706	7.95	0
0	3711	8	1
0	3712	8	1
0	3713	8	0
0	3714	8	1
0	3715	8	1
0	3716	8	0
0	3725	8.05	1
0	3726	8.05	1
0	3727	8.05	0
0	3732	8.1	1
0	3733	8.1	1
0	3734	8.1	0
0	3735	8.1	1
0	3736	8.1	1
0	3737	8.1	0
0	3746	8.15	1
0	3747	8.15	1
0	3748	8.15	0
0	3766	8.2	1
0	3767	8.2	1
0	3768	8.2	0
0	3769	8.2	1
0	3770	8.2	1
0	3771	8.2	0
0	3780	8.25	1
0	3781	8.25	1
0	3782	8.25	0
0	3787	8.3	1
0	3788	8.3	1
0	3789	8.3	0
0	3790	8.3	1
0	3791	8.3	1
0	3792	8.3	0
0	3814	8.35	1
0	3815	8.35	1
0	3816	8.35	0
0	3821	8.4	1
0	3822	8.4	1
0	3823	8.4	0
0	3824	8.4	1
0	3825	8.4	1
0	3826	8.4	0
0	3835	8.45	1
0	3836	8.45	1
0	3837	8.45	0
0	3842	8.5	1
0	3843	8.5	1
0	3844	8.5	0
0	3845	8.5	1
0	3846	8.5	1
0	3847	8.5	0
0	3856	8.55	1
0	3857	8.55	1
0	3858	8.55	0
0	3863	8.6	1
0	3864	8.6	1
0	3865	8.6	0
0	3866	8.6	1
0	3867	8.6	1
0	3868	8.6	0
0	3877	8.65	1
0	3878	8.65	1
0	3879	8.65	0
0	3884	8.7	1
0	3885	8.7	1
0	3886	8.7	0
0	3887	8.7	1
0	3888	8.7	1
0	3889	8.7	0
0	3911	8.75	1
0	3912	8.75	1
0	3913	8.75	0
0	3918	8.8	1
0	3919	8.8	1
0	3920	8.8	0
0	3921	8.8	1
0	3922	8.8	1
0	3923	8.8	0
0	3932	8.85	1
0	3933	8.85	1
0	3934	8.85	0
0	3952	8.9	1
0	3953	8.9	1
0	3954	8.9	0
0	3955	8.9	1
0	3956	8.9	1
0	3957	8.9	0
0	3966	8.95	1
0	3967	8.95	1
0	3968	8.95	0
0	3973	9	1
0	3974	9	1
0	3975	9	0
0	3976	9	1
0	3977	9	1
0	3978	9	0
0	3987	9.05	1
0	3988	9.05	1
0	3989	9.05	0
0	3994	9.1	1
0	3995	9.1	1
0	3996	9.1	0
0	3997	9.1	1
0	3998	9.1	1
0	3999	9.1	0
0	4008	9.15	1
0	4009	9.15	1
0	4010	9.15	0
0	4015	9.2	1
0	4016	9.2	1
0	4017	9.2	0
0	4018	9.2	1
0	4019	9.2	1
0	4020	9.2	0
0	4029	9.25	1
0	4030	9.25	1
0	4031	9.25	0
0	4049	9.3	1
0	4050	9.3	1
0	4051	9.3	0
0	4052	9.3	1
0	4053	9.3	1
0	4054	9.3	0
0	4063	9.35	1
0	4064	9.35	1
0	4065	9.35	0
0	4070	9.4	1
0	4071	9.4	1
0	4072	9.4	0
0	4073	9.4	1
0	4074	9.4	1
0	4075	9.4	0
0	4097	9.45	1
0	4098	9.45	1
0	4099	9.45	0
0	4104	9.5	1
0	4105	9.5	1
0	4106	9.5	0
0	4107	9.5	1
0	4108	9.5	1
0	4109	9.5	0
0	4118	9.55	1
0	4119	9.55	1
0	4120	9.55	0
0	4125	9.6	1
0	4126	9.6	1
0	4127	9.6	0
0	4128	9.6	1
0	4129	9.6	1
0	4130	9.6	0
0	4139	9.65	1
0	4140	9.65	1
0	4141	9.65	0
0	4146	9.7	1
0	4147	9.7	1
0	4148	9.7	0
0	4149	9.7	1
0	4150	9.7	1
0	4151	9.7	0
0	4160	9.75	1
0	4161	9.75	1
0	4162	9.75	0
0	4167	9.8	1
0	4168	9.8	1
0	4169	9.8	0
0	4170	9.8	1
0	4171	9.8	1
0	4172	9.8	0
0	4194	9.85	1
0	4195	9.85	1
0	4196	9.85	0
0	4201	9.9	1
0	4202	9.9	1
0	4203	9.9	0
0	4204	9.9	1
0	4205	9.9	1
0	4206	9.9	0
0	4215	9.95	1
0	4216	9.95	1
0	4217	9.95	0
0	4235	10	1
0	4236	10	1
0	4237	10	0
0	4238	10	1
0	4239	10	1
0	4240	10	0
1	19	0.1	-nan
1	40	0.101	-nan
1	42	0.102	-nan
1	44	0.103	-nan
1	46	0.104	-nan
1	48	0.105	-nan
1	50	0.106	-nan
1	52	0.107	-nan
1	54	0.108	-nan
1	56	0.109	-nan
1	58	0.11	-nan
1	60	0.111	-nan
1	62	0.112	-nan
1	64	0.113	-nan
1	66	0.114	-nan
1	68	0.115	-nan
1	70	0.116	-nan
1	72	0.117	-nan
1	74	0.118	-nan
1	76	0.119	-nan
1	78	0.12	-nan
1	80	0.121	-nan
1	82	0.122	-nan
1	84	0.123	-nan
1	86	0.124	-nan
1	88	0.125	-nan
1	90	0.126	-nan
1	92	0.127	-nan
1	94	0.128	-nan
1	96	0.129	-nan
1	98	0.13	-nan
1	100	0.131	-nan
1	102	0.132	-nan
1	104	0.133	-nan
1	106	0.134	-nan
1	108	0.135	-nan
1	110	0.136	-nan
1	112	0.137	-nan
1	114	0.138	-nan
1	116	0.139	-nan
1	118	0.14	-nan
1	120	0.141	-nan
1	122	0.142	-nan
1	124	0.143	-nan
1	126	0.144	-nan
1	128	0.145	-nan
1	130	0.146	-nan
1	132	0.147	-nan
1	134	0.148	-nan
1	136	0.149	-nan
1	141	0.15	-nan
1	149	0.151	-nan
1	151	0.152	-nan
1	153	0.153	-nan
1	155	0.154	-nan
1	157	0.155	-nan
1	159	0.156	-nan
1	161	0.157	-nan
1	163	0.158	-nan
1	165	0.159	-nan
1	167	0.16	-nan
1	169	0.161	-nan
1	171	0.162	-nan
1	173	0.163	-nan
1	175	0.164	-nan
1	177	0.165	-nan
1	179	0.166	-nan
1	181	0.167	-nan
1	183	0.168	-nan
1	185	0.169	-nan
1	187	0.17	-nan
1	189	0.171	-nan
1	191	0.172	-nan
1	193	0.173	-nan
1	195	0.174	-nan
1	197	0.175	-nan
1	199	0.176	-nan
1	201	0.177	-nan
1	203	0.178	-nan
1	205	0.179	-nan
1	207	0.18	-nan
1	209	0.181	-nan
1	211	0.182	-nan
1	213	0.183	-nan
1	215	0.184	-nan
1	217	0.185	-nan
1	219	0.186	-nan
1	221	0.187	-nan
1	223	0.188	-nan
1	225	0.189	-nan
1	227	0.19	-nan
1	229	0.191	-nan
1	231	0.192	-nan
1	233	0.193	-nan
1	235	0.194	-nan
1	237	0.195	-nan
1	239	0.196	-nan
1	241	0.197	-nan
1	243	0.198	-nan
1	245	0.199	-nan
2	974	1.687868379119	141
2	1003	1.701708379119	282
2	1013	1.715548379119	423
2	1023	1.729388379119	564
2	1033	1.743228379119	705
2	1052	1.757068379119	846
2	1062	1.770908379119	987
2	1072	1.784748379119	1128
2	1082	1.798588379119	1269
2	1111	1.812428379119	1410
2	1121	1.826268379119	1551
2	1131	1.840108379119	1692
2	1150	1.853948379119	1833
2	1160	1.867788379119	1974
2	1170	1.881628379119	2115
2	1180	1.895468379119	2256
2	1209	1.909308379119	2397
2	1219	1.923148379119	2538
2	1229	1.936988379119	2679
2	1248	1.950828379119	2820
2	1258	1.964668379119	2961
2	1268	1.978508379119	3102
2	1278	1.992348379119	3243
2	1307	2.006188379119	3384
2	1317	2.020028379119	3525
2	1327	2.033868379119	3666
2	1337	2.047708379119	3807
2	1356	2.061548379119	3948
2	1366	2.075388379119	4089
2	1376	2.089228379119	4230
2	1405	2.103068379119	4371
2	1415	2.116908379119	4512
2	1425	2.130748379119	4653
2	1435	2.144588379119	4794
2	1454	2.158428379119	4935
2	1464	2.172268379119	5076
2	1474	2.186108379119	5217
2	1484	2.199948379119	5358
2	1535	2.213788379119	5499
2	1556	2.227628379119	5640
2	1570	2.241468379119	5781
2	1589	2.255308379119	5922
2	1599	2.269148379119	6063
2	1609	2.282988379119	6204
2	1619	2.296828379119	6345
2	1648	2.310668379119	6486
2	1658	2.324508379119	6627
2	1668	2.338348379119	6768
2	1687	2.352188379119	6909
2	1697	2.366028379119	7050
2	1707	2.379868379119	7191
2	1717	2.393708379119	7332
2	1746	2.407548379119	7473
2	1756	2.421388379119	7614
2	1766	2.435228379119	7755
2	1776	2.449068379119	7896
2	1795	2.462908379119	8037
2	1805	2.476748379119	8178
2	1815	2.490588379119	8319
2	1844	2.504428379119	8460
2	1854	2.518268379119	8601
2	1864	2.532108379119	8742
2	1874	2.545948379119	8883
2	1893	2.559788379119	9024
2	1903	2.573628379119	9165
2	1913	2.587468379119	9306
2	1942	2.601308379119	9447
2	1952	2.615148379119	9588
2	1962	2.628988379119	9729
2	1972	2.642828379119	9870
2	1991	2.656668379119	10011
2	2001	2.670508379119	10152
2	2011	2.684348379119	10293
2	2021	2.698188379119	10434
2	2050	2.712028379119	10575
2	2060	2.725868379119	10716
2	2070	2.739708379119	10857
2	2089	2.753548379119	10998
2	2099	2.767388379119	11139
2	2109	2.781228379119	11280
2	2119	2.795068379119	11421
2	2144	2.808908379119	11562
2	2154	2.822748379119	11703
2	2164	2.836588379119	11844
2	2181	2.850428379119	11985
2	2191	2.864268379119	12126
2	2201	2.878108379119	12267
2	2211	2.891948379119	12408
2	2236	2.905788379119	12549
2	2246	2.919628379119	12690
2	2256	2.933468379119	12831
2	2266	2.947308379119	12972
2	2283	2.961148379119	13113
2	2293	2.974988379119	13254
2	2303	2.988828379119	13395
2	2328	3.002668379119	13536
2	2338	3.016508379119	13677
2	2348	3.030348379119	13818
2	2358	3.044188379119	13959
2	2375	3.058028379119	14100
3	974	1.687868379119	141
3	1003	1.701708379119	282
3	1013	1.715548379119	423
3	1023	1.729388379119	564
3	1033	1.743228379119	705
3	1052	1.757068379119	846
3	1062	1.770908379119	987
3	1072	1.784748379119	1128
3	1082	1.798588379119	1269
3	1111	1.812428379119	1410
3	1121	1.826268379119	1551
3	1131	1.840108379119	1692
3	1150	1.853948379119	1833
3	1160	1.867788379119	1974
3	1170	1.881628379119	2115
3	1180	1.895468379119	2256
3	1209	1.909308379119	2397
3	1219	1.923148379119	2538
3	1229	1.936988379119	2679
3	1248	1.950828379119	2820
3	1258	1.964668379119	2961
3	1268	1.978508379119	3102
3	1278	1.992348379119	3243
3	1307	2.006188379119	3384
3	1317	2.020028379119	3525
3	1327	2.033868379119	3666
3	1337	2.047708379119	3807
3	1356	2.061548379119	3948
3	1366	2.075388379119	4089
3	1376	2.089228379119	4230
3	1405	2.103068379119	4371
3	1415	2.116908379119	4512
3	1425	2.130748379119	4653
3	1435	2.144588379119	4794
3	1454	2.158428379119	4935
3	1464	2.172268379119	5076
3	1474	2.186108379119	5217
3	1484	2.199948379119	5358
3	1535	2.213788379119	5499
3	1556	2.227628379119	5640
3	1570	2.241468379119	5781
3	1589	2.255308379119	5922
3	1599	2.269148379119	6063
3	1609	2.282988379119	6204
3	1619	2.296828379119	6345
3	1648	2.310668379119	6486
3	1658	2.324508379119	6627
3	1668	2.338348379119	6768
3	1687	2.352188379119	6909
3	1697	2.366028379119	7050
3	1707	2.379868379119	7191
3	1717	2.393708379119	7332
3	1746	2.407548379119	7473
3	1756	2.421388379119	7614
3	1766	2.435228379119	7755
3	1776	2.449068379119	7896
3	1795	2.462908379119	8037
3	1805	2.476748379119	8178
3	1815	2.490588379119	8319
3	1844	2.504428379119	8460
3	1854	2.518268379119	8601
3	1864	2.532108379119	8742
3	1874	2.545948379119	8883
3	1893	2.559788379119	9024
3	1903	2.573628379119	9165
3	1913	2.587468379119	9306
3	1942	2.601308379119	9447
3	1952	2.615148379119	9588
3	1962	2.628988379119	9729
3	1972	2.642828379119	9870
3	1991	2.656668379119	10011
3	2001	2.670508379119	10152
3	2011	2.684348379119	10293
3	2021	2.698188379119	10434
3	2050	2.712028379119	10575
3	2060	2.725868379119	10716
3	2070	2.739708379119	10857
3	2089	2.753548379119	10998
3	2099	2.767388379119	11139
3	2109	2.781228379119	11280
3	2119	2.795068379119	11421
3	2144	2.808908379119	11562
3	2154	2.822748379119	11703
3	2164	2.836588379119	11844
3	2181	2.850428379119	11985
3	2191	2.864268379119	12126
3	2201	2.878108379119	12267
3	2211	2.891948379119	12408
3	2236	2.905788379119	12549
3	2246	2.919628379119	12690
3	2256	2.933468379119	12831
3	2266	2.947308379119	12972
3	2283	2.961148379119	13113
3	2293	2.974988379119	13254
3	2303	2.988828379119	13395
3	2328	3.002668379119	13536
3	2338	3.016508379119	13677
3	2348	3.030348379119	13818
3	2358	3.044188379119	13959
3	2375	3.058028379119	14100

