version 2
run T2-0-20190910-23:35:09-8000
attr configname T2
attr datetime 20190910-23:35:09
attr experiment T2
attr inifile SimV2.ini
attr iterationvars ""
attr iterationvarsf ""
attr measurement ""
attr network NetworkTormV2
attr processid 8000
attr repetition 0
attr replication #0
attr resultdir results
attr runnumber 0
attr seedset 0
param **.mobility.traceFile "\"paths/T2.movements\""
param **.numNodes 5
param **.wirelessIfc.wirelessRange 25m
param **.bluetoothIfc.wirelessRange 25m
param **.numNodes 2
param **.application.usedRNG 1
param **.application.dataGenerationInterval 1ms
param **.application.dataSizeInBytes 10
param **.application.ttl 999999s
param **application.destinationAddr "\"Wf:00:00:00:00:04\""
param **application.destinationBTAddr "\"Bt:00:00:00:00:04\""
param **application.nodesThatGen true
param **application.nodesGenMsg "\"0\""
param **application.startMultipleMsg true
param **application.numMultipleMsg 100
param **application.hopsListSize 50
param **.routingLayer "\"RoutingLayer\""
param **.routing.maximumCacheSize 5000byte
param **.routing.maximumHopCount 25
param **.routing.useTTL false
param **.routing.waitBFsend 0.5
param **.neighboring.antiEntropyInterval 500ms
param **.neighboring.maximumRandomBackoffDuration 1s
param **.neighboring.delayPerDataMsg 0.1
param **neighboring.usedRNG 2
param **.neighboring.GWAddr "\"02:00:00:00:00:09\""
param **.neighboring.sendWifiFirst true
param **.neighboring.maxLengthGraph 20
param **.wirelessIfc.wirelessRange 15m
param **.wirelessIfc.neighbourScanInterval 50ms
param **.wirelessIfc.bandwidthBitRate 100000bps
param **.wirelessIfc.wirelessHeaderSize 32byte
param **.wirelessIfc.minSSI -90
param **.bluetoothIfc.wirelessRange 15m
param **.bluetoothIfc.neighbourScanInterval 100ms
param **.bluetoothIfc.bandwidthBitRate 100000bps
param **.bluetoothIfc.wirelessHeaderSize 16byte
param **.bluetoothIfc.minSSI -90
param **.mobilityType "\"BonnMotionMobility\""
param **.mobility.traceFile "\"paths/Moves2.movements\""
param **.mobility.nodeId -1

vector 0 NetworkTormV2 neighbourhoodSize:vector ETV
attr source neighbourhoodSize
vector 1 NetworkTormV2 deliveryRatio:vector ETV
attr source sum(totalDataBytesReceived)/sum(totalDataBytesReceivableByAllNodes)
vector 2 NetworkTormV2 dataBytesReceivedSum:vector ETV
attr source sum(dataBytesReceived)
vector 3 NetworkTormV2 totalBytesReceivedSum:vector ETV
attr source sum(totalBytesReceived)
0	16	0.05	1
0	17	0.05	3
0	18	0.05	3
0	19	0.05	3
0	20	0.05	2
0	32	0.1	1
0	33	0.1	3
0	34	0.1	3
0	35	0.1	3
0	36	0.1	2
0	37	0.1	1
0	38	0.1	3
0	39	0.1	3
0	40	0.1	3
0	41	0.1	2
0	161	0.15	1
0	162	0.15	3
0	163	0.15	3
0	164	0.15	3
0	165	0.15	2
0	276	0.2	1
0	277	0.2	3
0	278	0.2	3
0	279	0.2	3
0	280	0.2	2
0	281	0.2	1
0	282	0.2	3
0	283	0.2	3
0	284	0.2	3
0	285	0.2	2
0	306	0.25	1
0	307	0.25	3
0	308	0.25	3
0	309	0.25	3
0	310	0.25	2
0	321	0.3	1
0	322	0.3	3
0	323	0.3	3
0	324	0.3	3
0	325	0.3	2
0	326	0.3	1
0	327	0.3	3
0	328	0.3	3
0	329	0.3	3
0	330	0.3	2
0	351	0.35	1
0	352	0.35	3
0	353	0.35	3
0	354	0.35	3
0	355	0.35	2
0	366	0.4	1
0	367	0.4	3
0	368	0.4	3
0	369	0.4	3
0	370	0.4	2
0	371	0.4	1
0	372	0.4	3
0	373	0.4	3
0	374	0.4	3
0	375	0.4	2
0	396	0.45	1
0	397	0.45	3
0	398	0.45	3
0	399	0.45	3
0	400	0.45	2
0	411	0.5	1
0	412	0.5	3
0	413	0.5	3
0	414	0.5	3
0	415	0.5	2
0	416	0.5	1
0	417	0.5	3
0	418	0.5	3
0	419	0.5	3
0	420	0.5	2
0	441	0.55	1
0	442	0.55	3
0	443	0.55	3
0	444	0.55	3
0	445	0.55	2
0	456	0.6	1
0	457	0.6	3
0	458	0.6	3
0	459	0.6	3
0	460	0.6	2
0	461	0.6	1
0	462	0.6	3
0	463	0.6	3
0	464	0.6	3
0	465	0.6	2
0	486	0.65	1
0	487	0.65	3
0	488	0.65	3
0	489	0.65	3
0	490	0.65	2
0	501	0.7	1
0	502	0.7	3
0	503	0.7	3
0	504	0.7	3
0	505	0.7	2
0	506	0.7	1
0	507	0.7	3
0	508	0.7	3
0	509	0.7	3
0	510	0.7	2
0	531	0.75	1
0	532	0.75	3
0	533	0.75	3
0	534	0.75	3
0	535	0.75	2
0	546	0.8	1
0	547	0.8	3
0	548	0.8	3
0	549	0.8	3
0	550	0.8	2
0	551	0.8	1
0	552	0.8	3
0	553	0.8	3
0	554	0.8	3
0	555	0.8	2
0	576	0.85	1
0	577	0.85	3
0	578	0.85	3
0	579	0.85	3
0	580	0.85	2
0	591	0.9	1
0	592	0.9	3
0	593	0.9	3
0	594	0.9	3
0	595	0.9	2
0	596	0.9	1
0	597	0.9	3
0	598	0.9	3
0	599	0.9	3
0	600	0.9	2
0	621	0.95	1
0	622	0.95	3
0	623	0.95	3
0	624	0.95	3
0	625	0.95	2
0	636	1	1
0	637	1	3
0	638	1	3
0	639	1	3
0	640	1	2
0	641	1	1
0	642	1	3
0	643	1	3
0	644	1	3
0	645	1	2
0	666	1.05	1
0	667	1.05	3
0	668	1.05	3
0	669	1.05	3
0	670	1.05	2
0	681	1.1	1
0	682	1.1	3
0	683	1.1	3
0	684	1.1	3
0	685	1.1	2
0	686	1.1	1
0	687	1.1	3
0	688	1.1	3
0	689	1.1	3
0	690	1.1	2
0	867	1.15	1
0	868	1.15	3
0	869	1.15	3
0	870	1.15	3
0	871	1.15	2
0	882	1.2	1
0	883	1.2	3
0	884	1.2	3
0	885	1.2	3
0	886	1.2	2
0	887	1.2	1
0	888	1.2	3
0	889	1.2	3
0	890	1.2	3
0	891	1.2	2
0	912	1.25	1
0	913	1.25	3
0	914	1.25	3
0	915	1.25	3
0	916	1.25	2
0	927	1.3	1
0	928	1.3	3
0	929	1.3	3
0	930	1.3	3
0	931	1.3	2
0	932	1.3	1
0	933	1.3	3
0	934	1.3	3
0	935	1.3	3
0	936	1.3	2
0	957	1.35	1
0	958	1.35	3
0	959	1.35	3
0	960	1.35	3
0	961	1.35	2
0	972	1.4	1
0	973	1.4	3
0	974	1.4	3
0	975	1.4	3
0	976	1.4	2
0	977	1.4	1
0	978	1.4	3
0	979	1.4	3
0	980	1.4	3
0	981	1.4	2
0	1002	1.45	1
0	1003	1.45	3
0	1004	1.45	3
0	1005	1.45	3
0	1006	1.45	2
0	1017	1.5	1
0	1018	1.5	3
0	1019	1.5	3
0	1020	1.5	3
0	1021	1.5	2
0	1022	1.5	1
0	1023	1.5	3
0	1024	1.5	3
0	1025	1.5	3
0	1026	1.5	2
0	1047	1.55	1
0	1048	1.55	3
0	1049	1.55	3
0	1050	1.55	3
0	1051	1.55	2
0	1062	1.6	1
0	1063	1.6	3
0	1064	1.6	3
0	1065	1.6	3
0	1066	1.6	2
0	1067	1.6	1
0	1068	1.6	3
0	1069	1.6	3
0	1070	1.6	3
0	1071	1.6	2
0	1092	1.65	1
0	1093	1.65	3
0	1094	1.65	3
0	1095	1.65	3
0	1096	1.65	2
0	1263	1.7	1
0	1264	1.7	3
0	1265	1.7	3
0	1266	1.7	3
0	1267	1.7	2
0	1268	1.7	1
0	1269	1.7	3
0	1270	1.7	3
0	1271	1.7	3
0	1272	1.7	2
0	1293	1.75	1
0	1294	1.75	3
0	1295	1.75	3
0	1296	1.75	3
0	1297	1.75	2
0	1308	1.8	1
0	1309	1.8	3
0	1310	1.8	3
0	1311	1.8	3
0	1312	1.8	2
0	1313	1.8	1
0	1314	1.8	3
0	1315	1.8	3
0	1316	1.8	3
0	1317	1.8	2
0	1338	1.85	1
0	1339	1.85	3
0	1340	1.85	3
0	1341	1.85	3
0	1342	1.85	2
0	1353	1.9	1
0	1354	1.9	3
0	1355	1.9	3
0	1356	1.9	3
0	1357	1.9	2
0	1358	1.9	1
0	1359	1.9	3
0	1360	1.9	3
0	1361	1.9	3
0	1362	1.9	2
0	1383	1.95	1
0	1384	1.95	3
0	1385	1.95	3
0	1386	1.95	3
0	1387	1.95	2
0	1398	2	1
0	1399	2	3
0	1400	2	3
0	1401	2	3
0	1402	2	2
0	1403	2	1
0	1404	2	3
0	1405	2	3
0	1406	2	3
0	1407	2	2
0	1428	2.05	1
0	1429	2.05	3
0	1430	2.05	3
0	1431	2.05	3
0	1432	2.05	2
0	1443	2.1	1
0	1444	2.1	3
0	1445	2.1	3
0	1446	2.1	3
0	1447	2.1	2
0	1448	2.1	1
0	1449	2.1	3
0	1450	2.1	3
0	1451	2.1	3
0	1452	2.1	2
0	1473	2.15	1
0	1474	2.15	3
0	1475	2.15	3
0	1476	2.15	3
0	1477	2.15	2
0	1488	2.2	1
0	1489	2.2	3
0	1490	2.2	3
0	1491	2.2	3
0	1492	2.2	2
0	1493	2.2	1
0	1494	2.2	3
0	1495	2.2	3
0	1496	2.2	3
0	1497	2.2	2
0	1880	2.25	1
0	1881	2.25	3
0	1882	2.25	3
0	1883	2.25	3
0	1884	2.25	2
0	1929	2.3	1
0	1930	2.3	3
0	1931	2.3	3
0	1932	2.3	3
0	1933	2.3	2
0	1934	2.3	1
0	1935	2.3	3
0	1936	2.3	3
0	1937	2.3	3
0	1938	2.3	2
0	1999	2.35	1
0	2000	2.35	3
0	2001	2.35	3
0	2002	2.35	3
0	2003	2.35	2
0	2050	2.4	1
0	2051	2.4	3
0	2052	2.4	3
0	2053	2.4	3
0	2054	2.4	2
0	2055	2.4	1
0	2056	2.4	3
0	2057	2.4	3
0	2058	2.4	3
0	2059	2.4	2
0	2114	2.45	1
0	2115	2.45	3
0	2116	2.45	3
0	2117	2.45	3
0	2118	2.45	2
0	2169	2.5	1
0	2170	2.5	3
0	2171	2.5	3
0	2172	2.5	3
0	2173	2.5	2
0	2174	2.5	1
0	2175	2.5	3
0	2176	2.5	3
0	2177	2.5	3
0	2178	2.5	2
0	2229	2.55	1
0	2230	2.55	3
0	2231	2.55	3
0	2232	2.55	3
0	2233	2.55	2
0	2284	2.6	1
0	2285	2.6	3
0	2286	2.6	3
0	2287	2.6	3
0	2288	2.6	2
0	2289	2.6	1
0	2290	2.6	3
0	2291	2.6	3
0	2292	2.6	3
0	2293	2.6	2
0	2350	2.65	1
0	2351	2.65	3
0	2352	2.65	3
0	2353	2.65	3
0	2354	2.65	2
0	2399	2.7	1
0	2400	2.7	3
0	2401	2.7	3
0	2402	2.7	3
0	2403	2.7	2
0	2404	2.7	1
0	2405	2.7	3
0	2406	2.7	3
0	2407	2.7	3
0	2408	2.7	2
0	2469	2.75	1
0	2470	2.75	3
0	2471	2.75	3
0	2472	2.75	3
0	2473	2.75	2
0	2655	2.8	1
0	2656	2.8	3
0	2657	2.8	3
0	2658	2.8	3
0	2659	2.8	2
0	2660	2.8	1
0	2661	2.8	3
0	2662	2.8	3
0	2663	2.8	3
0	2664	2.8	2
0	2725	2.85	1
0	2726	2.85	3
0	2727	2.85	3
0	2728	2.85	3
0	2729	2.85	2
0	2776	2.9	1
0	2777	2.9	3
0	2778	2.9	3
0	2779	2.9	3
0	2780	2.9	2
0	2781	2.9	1
0	2782	2.9	3
0	2783	2.9	3
0	2784	2.9	3
0	2785	2.9	2
0	2840	2.95	1
0	2841	2.95	3
0	2842	2.95	3
0	2843	2.95	3
0	2844	2.95	2
0	2895	3	1
0	2896	3	3
0	2897	3	3
0	2898	3	3
0	2899	3	2
0	2900	3	1
0	2901	3	3
0	2902	3	3
0	2903	3	3
0	2904	3	2
0	2955	3.05	1
0	2956	3.05	3
0	2957	3.05	3
0	2958	3.05	3
0	2959	3.05	2
0	3010	3.1	1
0	3011	3.1	3
0	3012	3.1	3
0	3013	3.1	3
0	3014	3.1	2
0	3015	3.1	1
0	3016	3.1	3
0	3017	3.1	3
0	3018	3.1	3
0	3019	3.1	2
0	3080	3.15	1
0	3081	3.15	3
0	3082	3.15	3
0	3083	3.15	3
0	3084	3.15	2
0	3125	3.2	1
0	3126	3.2	3
0	3127	3.2	3
0	3128	3.2	3
0	3129	3.2	2
0	3130	3.2	1
0	3131	3.2	3
0	3132	3.2	3
0	3133	3.2	3
0	3134	3.2	2
0	3195	3.25	1
0	3196	3.25	3
0	3197	3.25	3
0	3198	3.25	3
0	3199	3.25	2
0	3246	3.3	1
0	3247	3.3	3
0	3248	3.3	3
0	3249	3.3	3
0	3250	3.3	2
0	3251	3.3	1
0	3252	3.3	3
0	3253	3.3	3
0	3254	3.3	3
0	3255	3.3	2
0	3442	3.35	1
0	3443	3.35	3
0	3444	3.35	3
0	3445	3.35	3
0	3446	3.35	2
0	3497	3.4	1
0	3498	3.4	3
0	3499	3.4	3
0	3500	3.4	3
0	3501	3.4	2
0	3502	3.4	1
0	3503	3.4	3
0	3504	3.4	3
0	3505	3.4	3
0	3506	3.4	2
0	3557	3.45	1
0	3558	3.45	3
0	3559	3.45	3
0	3560	3.45	3
0	3561	3.45	2
0	3612	3.5	1
0	3613	3.5	3
0	3614	3.5	3
0	3615	3.5	3
0	3616	3.5	2
0	3617	3.5	1
0	3618	3.5	3
0	3619	3.5	3
0	3620	3.5	3
0	3621	3.5	2
0	3678	3.55	1
0	3679	3.55	3
0	3680	3.55	3
0	3681	3.55	3
0	3682	3.55	2
0	3727	3.6	1
0	3728	3.6	3
0	3729	3.6	3
0	3730	3.6	3
0	3731	3.6	2
0	3732	3.6	1
0	3733	3.6	3
0	3734	3.6	3
0	3735	3.6	3
0	3736	3.6	2
0	3803	3.65	1
0	3804	3.65	3
0	3805	3.65	3
0	3806	3.65	3
0	3807	3.65	2
0	3818	3.7	1
0	3819	3.7	3
0	3820	3.7	3
0	3821	3.7	3
0	3822	3.7	2
0	3823	3.7	1
0	3824	3.7	3
0	3825	3.7	3
0	3826	3.7	3
0	3827	3.7	2
0	3848	3.75	1
0	3849	3.75	3
0	3850	3.75	3
0	3851	3.75	3
0	3852	3.75	2
0	3876	3.8	1
0	3877	3.8	3
0	3878	3.8	3
0	3879	3.8	3
0	3880	3.8	2
0	3881	3.8	1
0	3882	3.8	3
0	3883	3.8	3
0	3884	3.8	3
0	3885	3.8	2
0	3906	3.85	1
0	3907	3.85	3
0	3908	3.85	3
0	3909	3.85	3
0	3910	3.85	2
0	4051	3.9	1
0	4052	3.9	3
0	4053	3.9	3
0	4054	3.9	3
0	4055	3.9	2
0	4056	3.9	1
0	4057	3.9	3
0	4058	3.9	3
0	4059	3.9	3
0	4060	3.9	2
0	4094	3.95	1
0	4095	3.95	3
0	4096	3.95	3
0	4097	3.95	3
0	4098	3.95	2
0	4109	4	1
0	4110	4	3
0	4111	4	3
0	4112	4	3
0	4113	4	2
0	4114	4	1
0	4115	4	3
0	4116	4	3
0	4117	4	3
0	4118	4	2
0	4139	4.05	1
0	4140	4.05	3
0	4141	4.05	3
0	4142	4.05	3
0	4143	4.05	2
0	4154	4.1	1
0	4155	4.1	3
0	4156	4.1	3
0	4157	4.1	3
0	4158	4.1	2
0	4159	4.1	1
0	4160	4.1	3
0	4161	4.1	3
0	4162	4.1	3
0	4163	4.1	2
0	4184	4.15	1
0	4185	4.15	3
0	4186	4.15	3
0	4187	4.15	3
0	4188	4.15	2
0	4199	4.2	1
0	4200	4.2	3
0	4201	4.2	3
0	4202	4.2	3
0	4203	4.2	2
0	4204	4.2	1
0	4205	4.2	3
0	4206	4.2	3
0	4207	4.2	3
0	4208	4.2	2
0	4229	4.25	1
0	4230	4.25	3
0	4231	4.25	3
0	4232	4.25	3
0	4233	4.25	2
0	4244	4.3	1
0	4245	4.3	3
0	4246	4.3	3
0	4247	4.3	3
0	4248	4.3	2
0	4249	4.3	1
0	4250	4.3	3
0	4251	4.3	3
0	4252	4.3	3
0	4253	4.3	2
0	4287	4.35	1
0	4288	4.35	3
0	4289	4.35	3
0	4290	4.35	3
0	4291	4.35	2
0	4302	4.4	1
0	4303	4.4	3
0	4304	4.4	3
0	4305	4.4	3
0	4306	4.4	2
0	4307	4.4	1
0	4308	4.4	3
0	4309	4.4	3
0	4310	4.4	3
0	4311	4.4	2
0	4662	4.45	1
0	4663	4.45	3
0	4664	4.45	3
0	4665	4.45	3
0	4666	4.45	2
0	4722	4.5	1
0	4723	4.5	3
0	4724	4.5	3
0	4725	4.5	3
0	4726	4.5	2
0	4727	4.5	1
0	4728	4.5	3
0	4729	4.5	3
0	4730	4.5	3
0	4731	4.5	2
0	4786	4.55	1
0	4787	4.55	3
0	4788	4.55	3
0	4789	4.55	3
0	4790	4.55	2
0	4841	4.6	1
0	4842	4.6	3
0	4843	4.6	3
0	4844	4.6	3
0	4845	4.6	2
0	4846	4.6	1
0	4847	4.6	3
0	4848	4.6	3
0	4849	4.6	3
0	4850	4.6	2
0	4901	4.65	1
0	4902	4.65	3
0	4903	4.65	3
0	4904	4.65	3
0	4905	4.65	2
0	4956	4.7	1
0	4957	4.7	3
0	4958	4.7	3
0	4959	4.7	3
0	4960	4.7	2
0	4961	4.7	1
0	4962	4.7	3
0	4963	4.7	3
0	4964	4.7	3
0	4965	4.7	2
0	5022	4.75	1
0	5023	4.75	3
0	5024	4.75	3
0	5025	4.75	3
0	5026	4.75	2
0	5071	4.8	1
0	5072	4.8	3
0	5073	4.8	3
0	5074	4.8	3
0	5075	4.8	2
0	5076	4.8	1
0	5077	4.8	3
0	5078	4.8	3
0	5079	4.8	3
0	5080	4.8	2
0	5141	4.85	1
0	5142	4.85	3
0	5143	4.85	3
0	5144	4.85	3
0	5145	4.85	2
0	5194	4.9	1
0	5195	4.9	3
0	5196	4.9	3
0	5197	4.9	3
0	5198	4.9	2
0	5199	4.9	1
0	5200	4.9	3
0	5201	4.9	3
0	5202	4.9	3
0	5203	4.9	2
0	5258	4.95	1
0	5259	4.95	3
0	5260	4.95	3
0	5261	4.95	3
0	5262	4.95	2
0	5413	5	1
0	5414	5	3
0	5415	5	3
0	5416	5	3
0	5417	5	2
0	5418	5	1
0	5419	5	3
0	5420	5	3
0	5421	5	3
0	5422	5	2
0	5473	5.05	1
0	5474	5.05	3
0	5475	5.05	3
0	5476	5.05	3
0	5477	5.05	2
0	5528	5.1	1
0	5529	5.1	3
0	5530	5.1	3
0	5531	5.1	3
0	5532	5.1	2
0	5533	5.1	1
0	5534	5.1	3
0	5535	5.1	3
0	5536	5.1	3
0	5537	5.1	2
0	5594	5.15	1
0	5595	5.15	3
0	5596	5.15	3
0	5597	5.15	3
0	5598	5.15	2
0	5643	5.2	1
0	5644	5.2	3
0	5645	5.2	3
0	5646	5.2	3
0	5647	5.2	2
0	5648	5.2	1
0	5649	5.2	3
0	5650	5.2	3
0	5651	5.2	3
0	5652	5.2	2
0	5713	5.25	1
0	5714	5.25	3
0	5715	5.25	3
0	5716	5.25	3
0	5717	5.25	2
0	5758	5.3	1
0	5759	5.3	3
0	5760	5.3	3
0	5761	5.3	3
0	5762	5.3	2
0	5763	5.3	1
0	5764	5.3	3
0	5765	5.3	3
0	5766	5.3	3
0	5767	5.3	2
0	5828	5.35	1
0	5829	5.35	3
0	5830	5.35	3
0	5831	5.35	3
0	5832	5.35	2
0	5879	5.4	1
0	5880	5.4	3
0	5881	5.4	3
0	5882	5.4	3
0	5883	5.4	2
0	5884	5.4	1
0	5885	5.4	3
0	5886	5.4	3
0	5887	5.4	3
0	5888	5.4	2
0	5943	5.45	1
0	5944	5.45	3
0	5945	5.45	3
0	5946	5.45	3
0	5947	5.45	2
0	5998	5.5	1
0	5999	5.5	3
0	6000	5.5	3
0	6001	5.5	3
0	6002	5.5	2
0	6003	5.5	1
0	6004	5.5	3
0	6005	5.5	3
0	6006	5.5	3
0	6007	5.5	2
0	6140	5.55	1
0	6141	5.55	3
0	6142	5.55	3
0	6143	5.55	3
0	6144	5.55	2
0	6195	5.6	1
0	6196	5.6	3
0	6197	5.6	3
0	6198	5.6	3
0	6199	5.6	2
0	6200	5.6	1
0	6201	5.6	3
0	6202	5.6	3
0	6203	5.6	3
0	6204	5.6	2
0	6265	5.65	1
0	6266	5.65	3
0	6267	5.65	3
0	6268	5.65	3
0	6269	5.65	2
0	6310	5.7	1
0	6311	5.7	3
0	6312	5.7	3
0	6313	5.7	3
0	6314	5.7	2
0	6315	5.7	1
0	6316	5.7	3
0	6317	5.7	3
0	6318	5.7	3
0	6319	5.7	2
0	6380	5.75	1
0	6381	5.75	3
0	6382	5.75	3
0	6383	5.75	3
0	6384	5.75	2
0	6431	5.8	1
0	6432	5.8	3
0	6433	5.8	3
0	6434	5.8	3
0	6435	5.8	2
0	6436	5.8	1
0	6437	5.8	3
0	6438	5.8	3
0	6439	5.8	3
0	6440	5.8	2
0	6500	5.85	1
0	6501	5.85	3
0	6502	5.85	3
0	6503	5.85	3
0	6504	5.85	2
0	6567	5.9	1
0	6568	5.9	3
0	6569	5.9	3
0	6570	5.9	3
0	6571	5.9	2
0	6572	5.9	1
0	6573	5.9	3
0	6574	5.9	3
0	6575	5.9	3
0	6576	5.9	2
0	6597	5.95	1
0	6598	5.95	3
0	6599	5.95	3
0	6600	5.95	3
0	6601	5.95	2
0	6625	6	1
0	6626	6	3
0	6627	6	3
0	6628	6	3
0	6629	6	2
0	6630	6	1
0	6631	6	3
0	6632	6	3
0	6633	6	3
0	6634	6	2
0	6681	6.05	1
0	6682	6.05	3
0	6683	6.05	3
0	6684	6.05	3
0	6685	6.05	2
0	6774	6.1	1
0	6775	6.1	3
0	6776	6.1	3
0	6777	6.1	3
0	6778	6.1	2
0	6779	6.1	1
0	6780	6.1	3
0	6781	6.1	3
0	6782	6.1	3
0	6783	6.1	2
0	6817	6.15	1
0	6818	6.15	3
0	6819	6.15	3
0	6820	6.15	3
0	6821	6.15	2
0	6858	6.2	1
0	6859	6.2	3
0	6860	6.2	3
0	6861	6.2	3
0	6862	6.2	2
0	6863	6.2	1
0	6864	6.2	3
0	6865	6.2	3
0	6866	6.2	3
0	6867	6.2	2
0	6888	6.25	1
0	6889	6.25	3
0	6890	6.25	3
0	6891	6.25	3
0	6892	6.25	2
0	6903	6.3	1
0	6904	6.3	3
0	6905	6.3	3
0	6906	6.3	3
0	6907	6.3	2
0	6908	6.3	1
0	6909	6.3	3
0	6910	6.3	3
0	6911	6.3	3
0	6912	6.3	2
0	6933	6.35	1
0	6934	6.35	3
0	6935	6.35	3
0	6936	6.35	3
0	6937	6.35	2
0	6948	6.4	1
0	6949	6.4	3
0	6950	6.4	3
0	6951	6.4	3
0	6952	6.4	2
0	6953	6.4	1
0	6954	6.4	3
0	6955	6.4	3
0	6956	6.4	3
0	6957	6.4	2
0	6978	6.45	1
0	6979	6.45	3
0	6980	6.45	3
0	6981	6.45	3
0	6982	6.45	2
0	6993	6.5	1
0	6994	6.5	3
0	6995	6.5	3
0	6996	6.5	3
0	6997	6.5	2
0	6998	6.5	1
0	6999	6.5	3
0	7000	6.5	3
0	7001	6.5	3
0	7002	6.5	2
0	7036	6.55	1
0	7037	6.55	3
0	7038	6.55	3
0	7039	6.55	3
0	7040	6.55	2
0	7077	6.6	1
0	7078	6.6	3
0	7079	6.6	3
0	7080	6.6	3
0	7081	6.6	2
0	7082	6.6	1
0	7083	6.6	3
0	7084	6.6	3
0	7085	6.6	3
0	7086	6.6	2
0	7395	6.65	1
0	7396	6.65	3
0	7397	6.65	3
0	7398	6.65	3
0	7399	6.65	2
0	7459	6.7	1
0	7460	6.7	3
0	7461	6.7	3
0	7462	6.7	3
0	7463	6.7	2
0	7464	6.7	1
0	7465	6.7	3
0	7466	6.7	3
0	7467	6.7	3
0	7468	6.7	2
0	7545	6.75	1
0	7546	6.75	3
0	7547	6.75	3
0	7548	6.75	3
0	7549	6.75	2
0	7600	6.8	1
0	7601	6.8	3
0	7602	6.8	3
0	7603	6.8	3
0	7604	6.8	2
0	7605	6.8	1
0	7606	6.8	3
0	7607	6.8	3
0	7608	6.8	3
0	7609	6.8	2
0	7660	6.85	1
0	7661	6.85	3
0	7662	6.85	3
0	7663	6.85	3
0	7664	6.85	2
0	7715	6.9	1
0	7716	6.9	3
0	7717	6.9	3
0	7718	6.9	3
0	7719	6.9	2
0	7720	6.9	1
0	7721	6.9	3
0	7722	6.9	3
0	7723	6.9	3
0	7724	6.9	2
0	7785	6.95	1
0	7786	6.95	3
0	7787	6.95	3
0	7788	6.95	3
0	7789	6.95	2
0	7830	7	1
0	7831	7	3
0	7832	7	3
0	7833	7	3
0	7834	7	2
0	7835	7	1
0	7836	7	3
0	7837	7	3
0	7838	7	3
0	7839	7	2
0	7900	7.05	1
0	7901	7.05	3
0	7902	7.05	3
0	7903	7.05	3
0	7904	7.05	2
0	7964	7.1	1
0	7965	7.1	3
0	7966	7.1	3
0	7967	7.1	3
0	7968	7.1	2
0	7969	7.1	1
0	7970	7.1	3
0	7971	7.1	3
0	7972	7.1	3
0	7973	7.1	2
0	8043	7.15	1
0	8044	7.15	3
0	8045	7.15	3
0	8046	7.15	3
0	8047	7.15	2
0	8146	7.2	1
0	8147	7.2	3
0	8148	7.2	3
0	8149	7.2	3
0	8150	7.2	2
0	8151	7.2	1
0	8152	7.2	3
0	8153	7.2	3
0	8154	7.2	3
0	8155	7.2	2
0	8219	7.25	1
0	8220	7.25	3
0	8221	7.25	3
0	8222	7.25	3
0	8223	7.25	2
0	8287	7.3	1
0	8288	7.3	3
0	8289	7.3	3
0	8290	7.3	3
0	8291	7.3	2
0	8292	7.3	1
0	8293	7.3	3
0	8294	7.3	3
0	8295	7.3	3
0	8296	7.3	2
0	8353	7.35	1
0	8354	7.35	3
0	8355	7.35	3
0	8356	7.35	3
0	8357	7.35	2
0	8402	7.4	1
0	8403	7.4	3
0	8404	7.4	3
0	8405	7.4	3
0	8406	7.4	2
0	8407	7.4	1
0	8408	7.4	3
0	8409	7.4	3
0	8410	7.4	3
0	8411	7.4	2
0	8472	7.45	1
0	8473	7.45	3
0	8474	7.45	3
0	8475	7.45	3
0	8476	7.45	2
0	8517	7.5	1
0	8518	7.5	3
0	8519	7.5	3
0	8520	7.5	3
0	8521	7.5	2
0	8522	7.5	1
0	8523	7.5	3
0	8524	7.5	3
0	8525	7.5	3
0	8526	7.5	2
0	8587	7.55	1
0	8588	7.55	3
0	8589	7.55	3
0	8590	7.55	3
0	8591	7.55	2
0	8638	7.6	1
0	8639	7.6	3
0	8640	7.6	3
0	8641	7.6	3
0	8642	7.6	2
0	8643	7.6	1
0	8644	7.6	3
0	8645	7.6	3
0	8646	7.6	3
0	8647	7.6	2
0	8715	7.65	1
0	8716	7.65	3
0	8717	7.65	3
0	8718	7.65	3
0	8719	7.65	2
0	8783	7.7	1
0	8784	7.7	3
0	8785	7.7	3
0	8786	7.7	3
0	8787	7.7	2
0	8788	7.7	1
0	8789	7.7	3
0	8790	7.7	3
0	8791	7.7	3
0	8792	7.7	2
0	8879	7.75	1
0	8880	7.75	3
0	8881	7.75	3
0	8882	7.75	3
0	8883	7.75	2
0	8941	7.8	1
0	8942	7.8	3
0	8943	7.8	3
0	8944	7.8	3
0	8945	7.8	2
0	8946	7.8	1
0	8947	7.8	3
0	8948	7.8	3
0	8949	7.8	3
0	8950	7.8	2
0	9024	7.85	1
0	9025	7.85	3
0	9026	7.85	3
0	9027	7.85	3
0	9028	7.85	2
0	9069	7.9	1
0	9070	7.9	3
0	9071	7.9	3
0	9072	7.9	3
0	9073	7.9	2
0	9074	7.9	1
0	9075	7.9	3
0	9076	7.9	3
0	9077	7.9	3
0	9078	7.9	2
0	9139	7.95	1
0	9140	7.95	3
0	9141	7.95	3
0	9142	7.95	3
0	9143	7.95	2
0	9190	8	1
0	9191	8	3
0	9192	8	3
0	9193	8	3
0	9194	8	2
0	9195	8	1
0	9196	8	3
0	9197	8	3
0	9198	8	3
0	9199	8	2
0	9267	8.05	1
0	9268	8.05	3
0	9269	8.05	3
0	9270	8.05	3
0	9271	8.05	2
0	9316	8.1	1
0	9317	8.1	3
0	9318	8.1	3
0	9319	8.1	3
0	9320	8.1	2
0	9321	8.1	1
0	9322	8.1	3
0	9323	8.1	3
0	9324	8.1	3
0	9325	8.1	2
0	9346	8.15	1
0	9347	8.15	3
0	9348	8.15	3
0	9349	8.15	3
0	9350	8.15	2
0	9400	8.2	1
0	9401	8.2	3
0	9402	8.2	3
0	9403	8.2	3
0	9404	8.2	2
0	9405	8.2	1
0	9406	8.2	3
0	9407	8.2	3
0	9408	8.2	3
0	9409	8.2	2
0	9456	8.25	1
0	9457	8.25	3
0	9458	8.25	3
0	9459	8.25	3
0	9460	8.25	2
0	9497	8.3	1
0	9498	8.3	3
0	9499	8.3	3
0	9500	8.3	3
0	9501	8.3	2
0	9502	8.3	1
0	9503	8.3	3
0	9504	8.3	3
0	9505	8.3	3
0	9506	8.3	2
0	9553	8.35	1
0	9554	8.35	3
0	9555	8.35	3
0	9556	8.35	3
0	9557	8.35	2
0	9607	8.4	1
0	9608	8.4	3
0	9609	8.4	3
0	9610	8.4	3
0	9611	8.4	2
0	9612	8.4	1
0	9613	8.4	3
0	9614	8.4	3
0	9615	8.4	3
0	9616	8.4	2
0	9637	8.45	1
0	9638	8.45	3
0	9639	8.45	3
0	9640	8.45	3
0	9641	8.45	2
0	9652	8.5	1
0	9653	8.5	3
0	9654	8.5	3
0	9655	8.5	3
0	9656	8.5	2
0	9657	8.5	1
0	9658	8.5	3
0	9659	8.5	3
0	9660	8.5	3
0	9661	8.5	2
0	9682	8.55	1
0	9683	8.55	3
0	9684	8.55	3
0	9685	8.55	3
0	9686	8.55	2
0	9697	8.6	1
0	9698	8.6	3
0	9699	8.6	3
0	9700	8.6	3
0	9701	8.6	2
0	9702	8.6	1
0	9703	8.6	3
0	9704	8.6	3
0	9705	8.6	3
0	9706	8.6	2
0	9727	8.65	1
0	9728	8.65	3
0	9729	8.65	3
0	9730	8.65	3
0	9731	8.65	2
0	9742	8.7	1
0	9743	8.7	3
0	9744	8.7	3
0	9745	8.7	3
0	9746	8.7	2
0	9747	8.7	1
0	9748	8.7	3
0	9749	8.7	3
0	9750	8.7	3
0	9751	8.7	2
0	9811	8.75	1
0	9812	8.75	3
0	9813	8.75	3
0	9814	8.75	3
0	9815	8.75	2
0	9852	8.8	1
0	9853	8.8	3
0	9854	8.8	3
0	9855	8.8	3
0	9856	8.8	2
0	9857	8.8	1
0	9858	8.8	3
0	9859	8.8	3
0	9860	8.8	3
0	9861	8.8	2
0	9908	8.85	1
0	9909	8.85	3
0	9910	8.85	3
0	9911	8.85	3
0	9912	8.85	2
0	9949	8.9	1
0	9950	8.9	3
0	9951	8.9	3
0	9952	8.9	3
0	9953	8.9	2
0	9954	8.9	1
0	9955	8.9	3
0	9956	8.9	3
0	9957	8.9	3
0	9958	8.9	2
0	10018	8.95	1
0	10019	8.95	3
0	10020	8.95	3
0	10021	8.95	3
0	10022	8.95	2
0	10033	9	1
0	10034	9	3
0	10035	9	3
0	10036	9	3
0	10037	9	2
0	10038	9	1
0	10039	9	3
0	10040	9	3
0	10041	9	3
0	10042	9	2
0	10063	9.05	1
0	10064	9.05	3
0	10065	9.05	3
0	10066	9.05	3
0	10067	9.05	2
0	10078	9.1	1
0	10079	9.1	3
0	10080	9.1	3
0	10081	9.1	3
0	10082	9.1	2
0	10083	9.1	1
0	10084	9.1	3
0	10085	9.1	3
0	10086	9.1	3
0	10087	9.1	2
0	10108	9.15	1
0	10109	9.15	3
0	10110	9.15	3
0	10111	9.15	3
0	10112	9.15	2
0	10123	9.2	1
0	10124	9.2	3
0	10125	9.2	3
0	10126	9.2	3
0	10127	9.2	2
0	10128	9.2	1
0	10129	9.2	3
0	10130	9.2	3
0	10131	9.2	3
0	10132	9.2	2
0	10153	9.25	1
0	10154	9.25	3
0	10155	9.25	3
0	10156	9.25	3
0	10157	9.25	2
0	10207	9.3	1
0	10208	9.3	3
0	10209	9.3	3
0	10210	9.3	3
0	10211	9.3	2
0	10212	9.3	1
0	10213	9.3	3
0	10214	9.3	3
0	10215	9.3	3
0	10216	9.3	2
0	10263	9.35	1
0	10264	9.35	3
0	10265	9.35	3
0	10266	9.35	3
0	10267	9.35	2
0	10304	9.4	1
0	10305	9.4	3
0	10306	9.4	3
0	10307	9.4	3
0	10308	9.4	2
0	10309	9.4	1
0	10310	9.4	3
0	10311	9.4	3
0	10312	9.4	3
0	10313	9.4	2
0	10360	9.45	1
0	10361	9.45	3
0	10362	9.45	3
0	10363	9.45	3
0	10364	9.45	2
0	10414	9.5	1
0	10415	9.5	3
0	10416	9.5	3
0	10417	9.5	3
0	10418	9.5	2
0	10419	9.5	1
0	10420	9.5	3
0	10421	9.5	3
0	10422	9.5	3
0	10423	9.5	2
0	10444	9.55	1
0	10445	9.55	3
0	10446	9.55	3
0	10447	9.55	3
0	10448	9.55	2
0	10459	9.6	1
0	10460	9.6	3
0	10461	9.6	3
0	10462	9.6	3
0	10463	9.6	2
0	10464	9.6	1
0	10465	9.6	3
0	10466	9.6	3
0	10467	9.6	3
0	10468	9.6	2
0	10489	9.65	1
0	10490	9.65	3
0	10491	9.65	3
0	10492	9.65	3
0	10493	9.65	2
0	10504	9.7	1
0	10505	9.7	3
0	10506	9.7	3
0	10507	9.7	3
0	10508	9.7	2
0	10509	9.7	1
0	10510	9.7	3
0	10511	9.7	3
0	10512	9.7	3
0	10513	9.7	2
0	10534	9.75	1
0	10535	9.75	3
0	10536	9.75	3
0	10537	9.75	3
0	10538	9.75	2
0	10549	9.8	1
0	10550	9.8	3
0	10551	9.8	3
0	10552	9.8	3
0	10553	9.8	2
0	10554	9.8	1
0	10555	9.8	3
0	10556	9.8	3
0	10557	9.8	3
0	10558	9.8	2
0	10618	9.85	1
0	10619	9.85	3
0	10620	9.85	3
0	10621	9.85	3
0	10622	9.85	2
0	10659	9.9	1
0	10660	9.9	3
0	10661	9.9	3
0	10662	9.9	3
0	10663	9.9	2
0	10664	9.9	1
0	10665	9.9	3
0	10666	9.9	3
0	10667	9.9	3
0	10668	9.9	2
0	10715	9.95	1
0	10716	9.95	3
0	10717	9.95	3
0	10718	9.95	3
0	10719	9.95	2
0	10756	10	1
0	10757	10	3
0	10758	10	3
0	10759	10	3
0	10760	10	2
0	10761	10	1
0	10762	10	3
0	10763	10	3
0	10764	10	3
0	10765	10	2
1	31	0.1	-nan
1	63	0.101	-nan
1	65	0.102	-nan
1	67	0.103	-nan
1	69	0.104	-nan
1	71	0.105	-nan
1	73	0.106	-nan
1	75	0.107	-nan
1	77	0.108	-nan
1	79	0.109	-nan
1	81	0.11	-nan
1	83	0.111	-nan
1	85	0.112	-nan
1	87	0.113	-nan
1	89	0.114	-nan
1	91	0.115	-nan
1	93	0.116	-nan
1	95	0.117	-nan
1	97	0.118	-nan
1	99	0.119	-nan
1	101	0.12	-nan
1	103	0.121	-nan
1	105	0.122	-nan
1	107	0.123	-nan
1	109	0.124	-nan
1	111	0.125	-nan
1	113	0.126	-nan
1	115	0.127	-nan
1	117	0.128	-nan
1	119	0.129	-nan
1	121	0.13	-nan
1	123	0.131	-nan
1	125	0.132	-nan
1	127	0.133	-nan
1	129	0.134	-nan
1	131	0.135	-nan
1	133	0.136	-nan
1	135	0.137	-nan
1	137	0.138	-nan
1	139	0.139	-nan
1	141	0.14	-nan
1	143	0.141	-nan
1	145	0.142	-nan
1	147	0.143	-nan
1	149	0.144	-nan
1	151	0.145	-nan
1	153	0.146	-nan
1	155	0.147	-nan
1	157	0.148	-nan
1	159	0.149	-nan
1	166	0.15	-nan
1	178	0.151	-nan
1	180	0.152	-nan
1	182	0.153	-nan
1	184	0.154	-nan
1	186	0.155	-nan
1	188	0.156	-nan
1	190	0.157	-nan
1	192	0.158	-nan
1	194	0.159	-nan
1	196	0.16	-nan
1	198	0.161	-nan
1	200	0.162	-nan
1	202	0.163	-nan
1	204	0.164	-nan
1	206	0.165	-nan
1	208	0.166	-nan
1	210	0.167	-nan
1	212	0.168	-nan
1	214	0.169	-nan
1	216	0.17	-nan
1	218	0.171	-nan
1	220	0.172	-nan
1	222	0.173	-nan
1	224	0.174	-nan
1	226	0.175	-nan
1	228	0.176	-nan
1	230	0.177	-nan
1	232	0.178	-nan
1	234	0.179	-nan
1	236	0.18	-nan
1	238	0.181	-nan
1	240	0.182	-nan
1	242	0.183	-nan
1	244	0.184	-nan
1	246	0.185	-nan
1	248	0.186	-nan
1	250	0.187	-nan
1	252	0.188	-nan
1	254	0.189	-nan
1	256	0.19	-nan
1	258	0.191	-nan
1	260	0.192	-nan
1	262	0.193	-nan
1	264	0.194	-nan
1	266	0.195	-nan
1	268	0.196	-nan
1	270	0.197	-nan
1	272	0.198	-nan
1	274	0.199	-nan
2	1877	2.247548379119	141
2	1902	2.261388379119	282
2	1912	2.275228379119	423
2	1922	2.289068379119	564
2	1962	2.302908379119	705
2	1972	2.316748379119	846
2	1982	2.330588379119	987
2	1992	2.344428379119	1128
2	2017	2.358268379119	1269
2	2027	2.372108379119	1410
2	2037	2.385948379119	1551
2	2047	2.399788379119	1692
2	2087	2.413628379119	1833
2	2097	2.427468379119	1974
2	2107	2.441308379119	2115
2	2132	2.455148379119	2256
2	2142	2.468988379119	2397
2	2152	2.482828379119	2538
2	2162	2.496668379119	2679
2	2202	2.510508379119	2820
2	2212	2.524348379119	2961
2	2222	2.538188379119	3102
2	2247	2.552028379119	3243
2	2257	2.565868379119	3384
2	2267	2.579708379119	3525
2	2277	2.593548379119	3666
2	2317	2.607388379119	3807
2	2327	2.621228379119	3948
2	2337	2.635068379119	4089
2	2347	2.648908379119	4230
2	2372	2.662748379119	4371
2	2382	2.676588379119	4512
2	2392	2.690428379119	4653
2	2432	2.704268379119	4794
2	2442	2.718108379119	4935
2	2452	2.731948379119	5076
2	2462	2.745788379119	5217
2	2511	2.759628379119	5358
2	2573	2.773468379119	5499
2	2620	2.787308379119	5640
2	2688	2.801148379119	5781
2	2698	2.814988379119	5922
2	2708	2.828828379119	6063
2	2718	2.842668379119	6204
2	2743	2.856508379119	6345
2	2753	2.870348379119	6486
2	2763	2.884188379119	6627
2	2773	2.898028379119	6768
2	2813	2.911868379119	6909
2	2823	2.925708379119	7050
2	2833	2.939548379119	7191
2	2858	2.953388379119	7332
2	2868	2.967228379119	7473
2	2878	2.981068379119	7614
2	2888	2.994908379119	7755
2	2928	3.008748379119	7896
2	2938	3.022588379119	8037
2	2948	3.036428379119	8178
2	2973	3.050268379119	8319
2	2983	3.064108379119	8460
2	2993	3.077948379119	8601
2	3003	3.091788379119	8742
2	3043	3.105628379119	8883
2	3053	3.119468379119	9024
2	3063	3.133308379119	9165
2	3073	3.147148379119	9306
2	3098	3.160988379119	9447
2	3108	3.174828379119	9588
2	3118	3.188668379119	9729
2	3158	3.202508379119	9870
2	3168	3.216348379119	10011
2	3178	3.230188379119	10152
2	3188	3.244028379119	10293
2	3213	3.257868379119	10434
2	3223	3.271708379119	10575
2	3233	3.285548379119	10716
2	3243	3.299388379119	10857
2	3333	3.313228379119	10998
2	3371	3.327068379119	11139
2	3427	3.340908379119	11280
2	3460	3.354748379119	11421
2	3470	3.368588379119	11562
2	3480	3.382428379119	11703
2	3490	3.396268379119	11844
2	3530	3.410108379119	11985
2	3540	3.423948379119	12126
2	3550	3.437788379119	12267
2	3575	3.451628379119	12408
2	3585	3.465468379119	12549
2	3595	3.479308379119	12690
2	3605	3.493148379119	12831
2	3645	3.506988379119	12972
2	3655	3.520828379119	13113
2	3665	3.534668379119	13254
2	3675	3.548508379119	13395
2	3700	3.562348379119	13536
2	3710	3.576188379119	13677
2	3720	3.590028379119	13818
2	3760	3.603868379119	13959
2	3770	3.617708379119	14100
2	4682	4.456868777977	14241
2	4699	4.470708777977	14382
2	4709	4.484548777977	14523
2	4719	4.498388777977	14664
2	4759	4.512228777977	14805
2	4769	4.526068777977	14946
2	4779	4.539908777977	15087
2	4804	4.553748777977	15228
2	4814	4.567588777977	15369
2	4824	4.581428777977	15510
2	4834	4.595268777977	15651
2	4874	4.609108777977	15792
2	4884	4.622948777977	15933
2	4894	4.636788777977	16074
2	4919	4.650628777977	16215
2	4929	4.664468777977	16356
2	4939	4.678308777977	16497
2	4949	4.692148777977	16638
2	4989	4.705988777977	16779
2	4999	4.719828777977	16920
2	5009	4.733668777977	17061
2	5019	4.747508777977	17202
2	5044	4.761348777977	17343
2	5054	4.775188777977	17484
2	5064	4.789028777977	17625
2	5104	4.802868777977	17766
2	5114	4.816708777977	17907
2	5124	4.830548777977	18048
2	5134	4.844388777977	18189
2	5161	4.858228777977	18330
2	5171	4.872068777977	18471
2	5181	4.885908777977	18612
2	5191	4.899748777977	18753
2	5231	4.913588777977	18894
2	5241	4.927428777977	19035
2	5251	4.941268777977	19176
2	5296	4.955108777977	19317
2	5323	4.968948777977	19458
2	5368	4.982788777977	19599
2	5406	4.996628777977	19740
2	5446	5.010468777977	19881
2	5456	5.024308777977	20022
2	5466	5.038148777977	20163
2	5491	5.051988777977	20304
2	5501	5.065828777977	20445
2	5511	5.079668777977	20586
2	5521	5.093508777977	20727
2	5561	5.107348777977	20868
2	5571	5.121188777977	21009
2	5581	5.135028777977	21150
2	5591	5.148868777977	21291
2	5616	5.162708777977	21432
2	5626	5.176548777977	21573
2	5636	5.190388777977	21714
2	5676	5.204228777977	21855
2	5686	5.218068777977	21996
2	5696	5.231908777977	22137
2	5706	5.245748777977	22278
2	5731	5.259588777977	22419
2	5741	5.273428777977	22560
2	5751	5.287268777977	22701
2	5791	5.301108777977	22842
2	5801	5.314948777977	22983
2	5811	5.328788777977	23124
2	5821	5.342628777977	23265
2	5846	5.356468777977	23406
2	5856	5.370308777977	23547
2	5866	5.384148777977	23688
2	5876	5.397988777977	23829
2	5916	5.411828777977	23970
2	5926	5.425668777977	24111
2	5936	5.439508777977	24252
2	5961	5.453348777977	24393
2	5971	5.467188777977	24534
2	5981	5.481028777977	24675
2	5991	5.494868777977	24816
2	6047	5.508708777977	24957
2	6099	5.522548777977	25098
2	6133	5.536388777977	25239
2	6158	5.550228777977	25380
2	6168	5.564068777977	25521
2	6178	5.577908777977	25662
2	6188	5.591748777977	25803
2	6228	5.605588777977	25944
2	6238	5.619428777977	26085
2	6248	5.633268777977	26226
2	6258	5.647108777977	26367
2	6283	5.660948777977	26508
2	6293	5.674788777977	26649
2	6303	5.688628777977	26790
2	6343	5.702468777977	26931
2	6353	5.716308777977	27072
2	6363	5.730148777977	27213
2	6373	5.743988777977	27354
2	6398	5.757828777977	27495
2	6408	5.771668777977	27636
2	6418	5.785508777977	27777
2	6428	5.799348777977	27918
2	6468	5.813188777977	28059
2	6478	5.827028777977	28200
2	7388	6.642501748192	28341
2	7415	6.656341748192	28482
2	7436	6.670181748192	28623
2	7446	6.684021748192	28764
2	7456	6.697861748192	28905
2	7507	6.711701748192	29046
2	7528	6.725541748192	29187
2	7538	6.739381748192	29328
2	7563	6.753221748192	29469
2	7573	6.767061748192	29610
2	7583	6.780901748192	29751
2	7593	6.794741748192	29892
2	7633	6.808581748192	30033
2	7643	6.822421748192	30174
2	7653	6.836261748192	30315
2	7678	6.850101748192	30456
2	7688	6.863941748192	30597
2	7698	6.877781748192	30738
2	7708	6.891621748192	30879
2	7748	6.905461748192	31020
2	7758	6.919301748192	31161
2	7768	6.933141748192	31302
2	7778	6.946981748192	31443
2	7803	6.960821748192	31584
2	7813	6.974661748192	31725
2	7823	6.988501748192	31866
2	7863	7.002341748192	32007
2	7873	7.016181748192	32148
2	7883	7.030021748192	32289
2	7893	7.043861748192	32430
2	7920	7.057701748192	32571
2	7941	7.071541748192	32712
2	7951	7.085381748192	32853
2	7961	7.099221748192	32994
2	8012	7.113061748192	33135
2	8026	7.126901748192	33276
2	8036	7.140741748192	33417
2	8073	7.154581748192	33558
2	8093	7.168421748192	33699
2	8129	7.182261748192	33840
2	8139	7.196101748192	33981
2	8188	7.209941748192	34122
2	8202	7.223781748192	34263
2	8212	7.237621748192	34404
2	8239	7.251461748192	34545
2	8260	7.265301748192	34686
2	8270	7.279141748192	34827
2	8280	7.292981748192	34968
2	8320	7.306821748192	35109
2	8330	7.320661748192	35250
2	8340	7.334501748192	35391
2	8350	7.348341748192	35532
2	8375	7.362181748192	35673
2	8385	7.376021748192	35814
2	8395	7.389861748192	35955
2	8435	7.403701748192	36096
2	8445	7.417541748192	36237
2	8455	7.431381748192	36378
2	8465	7.445221748192	36519
2	8490	7.459061748192	36660
2	8500	7.472901748192	36801
2	8510	7.486741748192	36942
2	8550	7.500581748192	37083
2	8560	7.514421748192	37224
2	8570	7.528261748192	37365
2	8580	7.542101748192	37506
2	8605	7.555941748192	37647
2	8615	7.569781748192	37788
2	8625	7.583621748192	37929
2	8635	7.597461748192	38070
2	8684	7.611301748192	38211
2	8698	7.625141748192	38352
2	8708	7.638981748192	38493
2	8735	7.652821748192	38634
2	8756	7.666661748192	38775
2	8766	7.680501748192	38916
2	8776	7.694341748192	39057
2	8824	7.708181748192	39198
2	8856	7.722021748192	39339
2	8866	7.735861748192	39480
2	8876	7.749701748192	39621
2	8910	7.763541748192	39762
2	8924	7.777381748192	39903
2	8934	7.791221748192	40044
2	8976	7.805061748192	40185
2	8997	7.818901748192	40326
2	9007	7.832741748192	40467
2	9017	7.846581748192	40608
2	9042	7.860421748192	40749
2	9052	7.874261748192	40890
2	9062	7.888101748192	41031
2	9102	7.901941748192	41172
2	9112	7.915781748192	41313
2	9122	7.929621748192	41454
2	9132	7.943461748192	41595
2	9157	7.957301748192	41736
2	9167	7.971141748192	41877
2	9177	7.984981748192	42018
2	9187	7.998821748192	42159
2	9227	8.012661748192	42300
3	1877	2.247548379119	141
3	1902	2.261388379119	282
3	1912	2.275228379119	423
3	1922	2.289068379119	564
3	1962	2.302908379119	705
3	1972	2.316748379119	846
3	1982	2.330588379119	987
3	1992	2.344428379119	1128
3	2017	2.358268379119	1269
3	2027	2.372108379119	1410
3	2037	2.385948379119	1551
3	2047	2.399788379119	1692
3	2087	2.413628379119	1833
3	2097	2.427468379119	1974
3	2107	2.441308379119	2115
3	2132	2.455148379119	2256
3	2142	2.468988379119	2397
3	2152	2.482828379119	2538
3	2162	2.496668379119	2679
3	2202	2.510508379119	2820
3	2212	2.524348379119	2961
3	2222	2.538188379119	3102
3	2247	2.552028379119	3243
3	2257	2.565868379119	3384
3	2267	2.579708379119	3525
3	2277	2.593548379119	3666
3	2317	2.607388379119	3807
3	2327	2.621228379119	3948
3	2337	2.635068379119	4089
3	2347	2.648908379119	4230
3	2372	2.662748379119	4371
3	2382	2.676588379119	4512
3	2392	2.690428379119	4653
3	2432	2.704268379119	4794
3	2442	2.718108379119	4935
3	2452	2.731948379119	5076
3	2462	2.745788379119	5217
3	2511	2.759628379119	5358
3	2573	2.773468379119	5499
3	2620	2.787308379119	5640
3	2688	2.801148379119	5781
3	2698	2.814988379119	5922
3	2708	2.828828379119	6063
3	2718	2.842668379119	6204
3	2743	2.856508379119	6345
3	2753	2.870348379119	6486
3	2763	2.884188379119	6627
3	2773	2.898028379119	6768
3	2813	2.911868379119	6909
3	2823	2.925708379119	7050
3	2833	2.939548379119	7191
3	2858	2.953388379119	7332
3	2868	2.967228379119	7473
3	2878	2.981068379119	7614
3	2888	2.994908379119	7755
3	2928	3.008748379119	7896
3	2938	3.022588379119	8037
3	2948	3.036428379119	8178
3	2973	3.050268379119	8319
3	2983	3.064108379119	8460
3	2993	3.077948379119	8601
3	3003	3.091788379119	8742
3	3043	3.105628379119	8883
3	3053	3.119468379119	9024
3	3063	3.133308379119	9165
3	3073	3.147148379119	9306
3	3098	3.160988379119	9447
3	3108	3.174828379119	9588
3	3118	3.188668379119	9729
3	3158	3.202508379119	9870
3	3168	3.216348379119	10011
3	3178	3.230188379119	10152
3	3188	3.244028379119	10293
3	3213	3.257868379119	10434
3	3223	3.271708379119	10575
3	3233	3.285548379119	10716
3	3243	3.299388379119	10857
3	3333	3.313228379119	10998
3	3371	3.327068379119	11139
3	3427	3.340908379119	11280
3	3460	3.354748379119	11421
3	3470	3.368588379119	11562
3	3480	3.382428379119	11703
3	3490	3.396268379119	11844
3	3530	3.410108379119	11985
3	3540	3.423948379119	12126
3	3550	3.437788379119	12267
3	3575	3.451628379119	12408
3	3585	3.465468379119	12549
3	3595	3.479308379119	12690
3	3605	3.493148379119	12831
3	3645	3.506988379119	12972
3	3655	3.520828379119	13113
3	3665	3.534668379119	13254
3	3675	3.548508379119	13395
3	3700	3.562348379119	13536
3	3710	3.576188379119	13677
3	3720	3.590028379119	13818
3	3760	3.603868379119	13959
3	3770	3.617708379119	14100
3	4682	4.456868777977	14241
3	4699	4.470708777977	14382
3	4709	4.484548777977	14523
3	4719	4.498388777977	14664
3	4759	4.512228777977	14805
3	4769	4.526068777977	14946
3	4779	4.539908777977	15087
3	4804	4.553748777977	15228
3	4814	4.567588777977	15369
3	4824	4.581428777977	15510
3	4834	4.595268777977	15651
3	4874	4.609108777977	15792
3	4884	4.622948777977	15933
3	4894	4.636788777977	16074
3	4919	4.650628777977	16215
3	4929	4.664468777977	16356
3	4939	4.678308777977	16497
3	4949	4.692148777977	16638
3	4989	4.705988777977	16779
3	4999	4.719828777977	16920
3	5009	4.733668777977	17061
3	5019	4.747508777977	17202
3	5044	4.761348777977	17343
3	5054	4.775188777977	17484
3	5064	4.789028777977	17625
3	5104	4.802868777977	17766
3	5114	4.816708777977	17907
3	5124	4.830548777977	18048
3	5134	4.844388777977	18189
3	5161	4.858228777977	18330
3	5171	4.872068777977	18471
3	5181	4.885908777977	18612
3	5191	4.899748777977	18753
3	5231	4.913588777977	18894
3	5241	4.927428777977	19035
3	5251	4.941268777977	19176
3	5296	4.955108777977	19317
3	5323	4.968948777977	19458
3	5368	4.982788777977	19599
3	5406	4.996628777977	19740
3	5446	5.010468777977	19881
3	5456	5.024308777977	20022
3	5466	5.038148777977	20163
3	5491	5.051988777977	20304
3	5501	5.065828777977	20445
3	5511	5.079668777977	20586
3	5521	5.093508777977	20727
3	5561	5.107348777977	20868
3	5571	5.121188777977	21009
3	5581	5.135028777977	21150
3	5591	5.148868777977	21291
3	5616	5.162708777977	21432
3	5626	5.176548777977	21573
3	5636	5.190388777977	21714
3	5676	5.204228777977	21855
3	5686	5.218068777977	21996
3	5696	5.231908777977	22137
3	5706	5.245748777977	22278
3	5731	5.259588777977	22419
3	5741	5.273428777977	22560
3	5751	5.287268777977	22701
3	5791	5.301108777977	22842
3	5801	5.314948777977	22983
3	5811	5.328788777977	23124
3	5821	5.342628777977	23265
3	5846	5.356468777977	23406
3	5856	5.370308777977	23547
3	5866	5.384148777977	23688
3	5876	5.397988777977	23829
3	5916	5.411828777977	23970
3	5926	5.425668777977	24111
3	5936	5.439508777977	24252
3	5961	5.453348777977	24393
3	5971	5.467188777977	24534
3	5981	5.481028777977	24675
3	5991	5.494868777977	24816
3	6047	5.508708777977	24957
3	6099	5.522548777977	25098
3	6133	5.536388777977	25239
3	6158	5.550228777977	25380
3	6168	5.564068777977	25521
3	6178	5.577908777977	25662
3	6188	5.591748777977	25803
3	6228	5.605588777977	25944
3	6238	5.619428777977	26085
3	6248	5.633268777977	26226
3	6258	5.647108777977	26367
3	6283	5.660948777977	26508
3	6293	5.674788777977	26649
3	6303	5.688628777977	26790
3	6343	5.702468777977	26931
3	6353	5.716308777977	27072
3	6363	5.730148777977	27213
3	6373	5.743988777977	27354
3	6398	5.757828777977	27495
3	6408	5.771668777977	27636
3	6418	5.785508777977	27777
3	6428	5.799348777977	27918
3	6468	5.813188777977	28059
3	6478	5.827028777977	28200
3	7388	6.642501748192	28341
3	7415	6.656341748192	28482
3	7436	6.670181748192	28623
3	7446	6.684021748192	28764
3	7456	6.697861748192	28905
3	7507	6.711701748192	29046
3	7528	6.725541748192	29187
3	7538	6.739381748192	29328
3	7563	6.753221748192	29469
3	7573	6.767061748192	29610
3	7583	6.780901748192	29751
3	7593	6.794741748192	29892
3	7633	6.808581748192	30033
3	7643	6.822421748192	30174
3	7653	6.836261748192	30315
3	7678	6.850101748192	30456
3	7688	6.863941748192	30597
3	7698	6.877781748192	30738
3	7708	6.891621748192	30879
3	7748	6.905461748192	31020
3	7758	6.919301748192	31161
3	7768	6.933141748192	31302
3	7778	6.946981748192	31443
3	7803	6.960821748192	31584
3	7813	6.974661748192	31725
3	7823	6.988501748192	31866
3	7863	7.002341748192	32007
3	7873	7.016181748192	32148
3	7883	7.030021748192	32289
3	7893	7.043861748192	32430
3	7920	7.057701748192	32571
3	7941	7.071541748192	32712
3	7951	7.085381748192	32853
3	7961	7.099221748192	32994
3	8012	7.113061748192	33135
3	8026	7.126901748192	33276
3	8036	7.140741748192	33417
3	8073	7.154581748192	33558
3	8093	7.168421748192	33699
3	8129	7.182261748192	33840
3	8139	7.196101748192	33981
3	8188	7.209941748192	34122
3	8202	7.223781748192	34263
3	8212	7.237621748192	34404
3	8239	7.251461748192	34545
3	8260	7.265301748192	34686
3	8270	7.279141748192	34827
3	8280	7.292981748192	34968
3	8320	7.306821748192	35109
3	8330	7.320661748192	35250
3	8340	7.334501748192	35391
3	8350	7.348341748192	35532
3	8375	7.362181748192	35673
3	8385	7.376021748192	35814
3	8395	7.389861748192	35955
3	8435	7.403701748192	36096
3	8445	7.417541748192	36237
3	8455	7.431381748192	36378
3	8465	7.445221748192	36519
3	8490	7.459061748192	36660
3	8500	7.472901748192	36801
3	8510	7.486741748192	36942
3	8550	7.500581748192	37083
3	8560	7.514421748192	37224
3	8570	7.528261748192	37365
3	8580	7.542101748192	37506
3	8605	7.555941748192	37647
3	8615	7.569781748192	37788
3	8625	7.583621748192	37929
3	8635	7.597461748192	38070
3	8684	7.611301748192	38211
3	8698	7.625141748192	38352
3	8708	7.638981748192	38493
3	8735	7.652821748192	38634
3	8756	7.666661748192	38775
3	8766	7.680501748192	38916
3	8776	7.694341748192	39057
3	8824	7.708181748192	39198
3	8856	7.722021748192	39339
3	8866	7.735861748192	39480
3	8876	7.749701748192	39621
3	8910	7.763541748192	39762
3	8924	7.777381748192	39903
3	8934	7.791221748192	40044
3	8976	7.805061748192	40185
3	8997	7.818901748192	40326
3	9007	7.832741748192	40467
3	9017	7.846581748192	40608
3	9042	7.860421748192	40749
3	9052	7.874261748192	40890
3	9062	7.888101748192	41031
3	9102	7.901941748192	41172
3	9112	7.915781748192	41313
3	9122	7.929621748192	41454
3	9132	7.943461748192	41595
3	9157	7.957301748192	41736
3	9167	7.971141748192	41877
3	9177	7.984981748192	42018
3	9187	7.998821748192	42159
3	9227	8.012661748192	42300

