version 2
run testing-0-20210215-23:30:41-11032
attr configname testing
attr datetime 20210215-23:30:41
attr experiment testing
attr inifile GwSimV2.ini
attr iterationvars ""
attr iterationvarsf ""
attr measurement ""
attr network NetworkTormV2
attr processid 11032
attr repetition 0
attr replication #0
attr resultdir results
attr runnumber 0
attr seedset 0
param **.mobility.traceFile "\"AllPaths/mobPaths/testing.movements\""
param **.numNodes 4
param **.application.dataGenerationInterval 1s
param **.application.dataSizeInBytes 10
param **.application.ttl 999999s
param **application.nodesThatGen false
param **application.nodesGenMsg "\"\""
param **application.startMultipleMsg false
param **application.numMultipleMsg 100
param **application.hopsListSize 50
param **.application.endGeneratingMsg 539s
param **.routingLayer "\"RoutingLqeGw\""
param **.routing.maximumCacheSize 5000byte
param **.routing.maximumHopCount 25
param **.routing.useTTL false
param **.routing.waitBFsend 0.1
param **.routing.max_age 999999s
param **.routing.gateway_list "\"\""
param **.routing.actual_gateway "\"\""
param **.routing.gwCheckPeriod 5s
param **.neighboring.resetGPeriod 999s
param **.wirelessIfc.wirelessRange 40m
param **.numNodes 2
param **.application.usedRNG 1
param **.application.dataGenerationInterval 1s
param **.application.dataSizeInBytes 10
param **.application.ttl 999999s
param **application.destinationAddr "\"Wf:00:00:00:00:02\""
param **application.destinationBTAddr "\"Bt:00:00:00:00:02\""
param **application.nodesThatGen true
param **application.nodesGenMsg "\"0\""
param **application.startMultipleMsg true
param **application.numMultipleMsg 100
param **application.hopsListSize 50
param **.application.endGeneratingMsg 999999s
param **.routingLayer "\"RoutingLqeGw\""
param **.routing.maximumCacheSize 5000byte
param **.routing.maximumHopCount 25
param **.routing.useTTL false
param **.routing.waitBFsend 0.1
param **.routing.max_age 999999s
param **.routing.gateway_list "\"\""
param **.routing.actual_gateway "\"\""
param **.routing.gwCheckPeriod 5s
param **.neighboring.antiEntropyInterval 500ms
param **.neighboring.maximumRandomBackoffDuration 1s
param **.neighboring.delayPerDataMsg 0.1
param **neighboring.usedRNG 2
param **.neighboring.GWAddr "\"Wf:00:00:00:00:02\""
param **.neighboring.sendWifiFirst true
param **.neighboring.max_age 999999s
param **.neighboring.max_absent_time 1s
param **.neighboring.maxLengthGraph 15
param **.wirelessIfc.wirelessRange 40m
param **.wirelessIfc.neighbourScanInterval 50ms
param **.wirelessIfc.bandwidthBitRate 100000bps
param **.wirelessIfc.wirelessHeaderSize 32byte
param **.wirelessIfc.minSSI -90
param **.wirelessIfc.limitQueueTime 400ms
param **.wirelessIfc.my_limit_rate 0bps
param **.bluetoothIfc.wirelessRange 40m
param **.bluetoothIfc.neighbourScanInterval 100ms
param **.bluetoothIfc.bandwidthBitRate 100000bps
param **.bluetoothIfc.wirelessHeaderSize 16byte
param **.bluetoothIfc.minSSI -90
param **.mobilityType "\"BonnMotionMobility\""
param **.mobility.traceFile "\"paths/Moves2.movements\""
param **.mobility.is3D false
param **.mobility.nodeId -1

vector 0 NetworkTormV2 neighbourhoodSize:vector ETV
attr source neighbourhoodSize
vector 1 NetworkTormV2 deliveryRatio:vector ETV
attr source sum(totalDataBytesReceived)/sum(totalDataBytesReceivableByAllNodes)
0	13	0.05	3
0	14	0.05	1
0	15	0.05	2
0	16	0.05	2
0	50	0.1	3
0	52	0.1	1
0	54	0.1	2
0	56	0.1	2
0	61	0.1	3
0	62	0.1	1
0	63	0.1	2
0	64	0.1	2
0	109	0.15	3
0	110	0.15	1
0	111	0.15	2
0	112	0.15	2
0	145	0.2	3
0	146	0.2	1
0	147	0.2	2
0	148	0.2	2
0	153	0.2	3
0	154	0.2	1
0	155	0.2	2
0	156	0.2	2
0	197	0.25	3
0	198	0.25	1
0	199	0.25	2
0	200	0.25	2
1	49	0.1	nan
1	51	0.1	nan
1	53	0.1	nan
1	55	0.1	nan
vector 2 NetworkTormV2 dataBytesReceivedSum:vector ETV
attr source sum(dataBytesReceived)
vector 3 NetworkTormV2 totalBytesReceivedSum:vector ETV
attr source sum(totalBytesReceived)
0	233	0.3	3
0	234	0.3	1
0	235	0.3	2
0	236	0.3	2
0	241	0.3	3
0	242	0.3	1
0	243	0.3	2
0	244	0.3	2
0	285	0.35	3
0	286	0.35	1
0	287	0.35	2
0	288	0.35	2
0	321	0.4	3
0	322	0.4	1
0	323	0.4	2
0	324	0.4	2
0	329	0.4	3
0	330	0.4	1
0	331	0.4	2
0	332	0.4	2
0	373	0.45	3
0	374	0.45	1
0	375	0.45	2
0	376	0.45	2
0	409	0.5	3
0	410	0.5	1
0	411	0.5	2
0	412	0.5	2
0	417	0.5	3
0	418	0.5	1
0	419	0.5	2
0	420	0.5	2
0	461	0.55	3
0	462	0.55	1
0	463	0.55	2
0	464	0.55	2
0	497	0.6	3
0	498	0.6	1
0	499	0.6	2
0	500	0.6	2
0	505	0.6	3
0	506	0.6	1
0	507	0.6	2
0	508	0.6	2
0	549	0.65	3
0	550	0.65	1
0	551	0.65	2
0	552	0.65	2
0	585	0.7	3
0	586	0.7	1
0	587	0.7	2
0	588	0.7	2
0	593	0.7	3
0	594	0.7	1
0	595	0.7	2
0	596	0.7	2
0	637	0.75	3
0	638	0.75	1
0	639	0.75	2
0	640	0.75	2
0	673	0.8	3
0	674	0.8	1
0	675	0.8	2
0	676	0.8	2
0	681	0.8	3
0	682	0.8	1
0	683	0.8	2
0	684	0.8	2
0	725	0.85	3
0	726	0.85	1
0	727	0.85	2
0	728	0.85	2
0	761	0.9	3
0	762	0.9	1
0	763	0.9	2
0	764	0.9	2
0	769	0.9	3
0	770	0.9	1
0	771	0.9	2
0	772	0.9	2
0	813	0.95	3
0	814	0.95	1
0	815	0.95	2
0	816	0.95	2
0	849	1	3
0	850	1	1
0	851	1	2
0	852	1	2
0	857	1	3
0	858	1	1
0	859	1	2
0	860	1	2
0	901	1.05	3
0	902	1.05	1
0	903	1.05	2
0	904	1.05	2
0	941	1.1	3
0	942	1.1	1
0	943	1.1	2
0	944	1.1	2
0	949	1.1	3
0	950	1.1	1
0	951	1.1	2
0	952	1.1	2
0	1163	1.15	3
0	1164	1.15	1
0	1165	1.15	2
0	1166	1.15	2
0	1211	1.2	3
0	1212	1.2	1
0	1213	1.2	2
0	1214	1.2	2
0	1219	1.2	3
0	1220	1.2	1
0	1221	1.2	2
0	1222	1.2	2
0	1263	1.25	3
0	1264	1.25	1
0	1265	1.25	2
0	1266	1.25	2
0	1299	1.3	3
0	1300	1.3	1
0	1301	1.3	2
0	1302	1.3	2
0	1307	1.3	3
0	1308	1.3	1
0	1309	1.3	2
0	1310	1.3	2
0	1351	1.35	3
0	1352	1.35	1
0	1353	1.35	2
0	1354	1.35	2
0	1387	1.4	3
0	1388	1.4	1
0	1389	1.4	2
0	1390	1.4	2
0	1395	1.4	3
0	1396	1.4	1
0	1397	1.4	2
0	1398	1.4	2
0	1439	1.45	3
0	1440	1.45	1
0	1441	1.45	2
0	1442	1.45	2
0	1475	1.5	3
0	1476	1.5	1
0	1477	1.5	2
0	1478	1.5	2
0	1483	1.5	3
0	1484	1.5	1
0	1485	1.5	2
0	1486	1.5	2
0	1527	1.55	3
0	1528	1.55	1
0	1529	1.55	2
0	1530	1.55	2
0	1563	1.6	3
0	1564	1.6	1
0	1565	1.6	2
0	1566	1.6	2
0	1571	1.6	3
0	1572	1.6	1
0	1573	1.6	2
0	1574	1.6	2
0	1615	1.65	3
0	1616	1.65	1
0	1617	1.65	2
0	1618	1.65	2
0	1811	1.7	3
0	1812	1.7	1
0	1813	1.7	2
0	1814	1.7	2
0	1819	1.7	3
0	1820	1.7	1
0	1821	1.7	2
0	1822	1.7	2
0	1881	1.75	3
0	1882	1.75	1
0	1883	1.75	2
0	1884	1.75	2
0	1917	1.8	3
0	1918	1.8	1
0	1919	1.8	2
0	1920	1.8	2
0	1925	1.8	3
0	1926	1.8	1
0	1927	1.8	2
0	1928	1.8	2
0	1969	1.85	3
0	1970	1.85	1
0	1971	1.85	2
0	1972	1.85	2
0	2005	1.9	3
0	2006	1.9	1
0	2007	1.9	2
0	2008	1.9	2
0	2013	1.9	3
0	2014	1.9	1
0	2015	1.9	2
0	2016	1.9	2
0	2057	1.95	3
0	2058	1.95	1
0	2059	1.95	2
0	2060	1.95	2
0	2093	2	3
0	2094	2	1
0	2095	2	2
0	2096	2	2
0	2101	2	3
0	2102	2	1
0	2103	2	2
0	2104	2	2
0	2145	2.05	3
0	2146	2.05	1
0	2147	2.05	2
0	2148	2.05	2
0	2185	2.1	3
0	2186	2.1	1
0	2187	2.1	2
0	2188	2.1	2
0	2193	2.1	3
0	2194	2.1	1
0	2195	2.1	2
0	2196	2.1	2
0	2241	2.15	3
0	2242	2.15	1
0	2243	2.15	2
0	2244	2.15	2
0	2277	2.2	3
0	2278	2.2	1
0	2279	2.2	2
0	2280	2.2	2
0	2285	2.2	3
0	2286	2.2	1
0	2287	2.2	2
0	2288	2.2	2
0	2495	2.25	3
0	2496	2.25	1
0	2497	2.25	2
0	2498	2.25	2
0	2549	2.3	3
0	2550	2.3	1
0	2551	2.3	2
0	2552	2.3	2
0	2557	2.3	3
0	2558	2.3	1
0	2559	2.3	2
0	2560	2.3	2
0	2601	2.35	3
0	2602	2.35	1
0	2603	2.35	2
0	2604	2.35	2
0	2637	2.4	3
0	2638	2.4	1
0	2639	2.4	2
0	2640	2.4	2
0	2645	2.4	3
0	2646	2.4	1
0	2647	2.4	2
0	2648	2.4	2
0	2689	2.45	3
0	2690	2.45	1
0	2691	2.45	2
0	2692	2.45	2
0	2725	2.5	3
0	2726	2.5	1
0	2727	2.5	2
0	2728	2.5	2
0	2733	2.5	3
0	2734	2.5	1
0	2735	2.5	2
0	2736	2.5	2
0	2777	2.55	3
0	2778	2.55	1
0	2779	2.55	2
0	2780	2.55	2
0	2813	2.6	3
0	2814	2.6	1
0	2815	2.6	2
0	2816	2.6	2
0	2821	2.6	3
0	2822	2.6	1
0	2823	2.6	2
0	2824	2.6	2
0	2865	2.65	3
0	2866	2.65	1
0	2867	2.65	2
0	2868	2.65	2
0	2901	2.7	3
0	2902	2.7	1
0	2903	2.7	2
0	2904	2.7	2
0	2909	2.7	3
0	2910	2.7	1
0	2911	2.7	2
0	2912	2.7	2
0	2953	2.75	3
0	2954	2.75	1
0	2955	2.75	2
0	2956	2.75	2
0	3155	2.8	3
0	3156	2.8	1
0	3157	2.8	2
0	3158	2.8	2
0	3163	2.8	3
0	3164	2.8	1
0	3165	2.8	2
0	3166	2.8	2
0	3225	2.85	3
0	3226	2.85	1
0	3227	2.85	2
0	3228	2.85	2
0	3261	2.9	3
0	3262	2.9	1
0	3263	2.9	2
0	3264	2.9	2
0	3269	2.9	3
0	3270	2.9	1
0	3271	2.9	2
0	3272	2.9	2
0	3313	2.95	3
0	3314	2.95	1
0	3315	2.95	2
0	3316	2.95	2
0	3349	3	3
0	3350	3	1
0	3351	3	2
0	3352	3	2
0	3357	3	3
0	3358	3	1
0	3359	3	2
0	3360	3	2
0	3401	3.05	3
0	3402	3.05	1
0	3403	3.05	2
0	3404	3.05	2
0	3441	3.1	3
0	3442	3.1	1
0	3443	3.1	2
0	3444	3.1	2
0	3449	3.1	3
0	3450	3.1	1
0	3451	3.1	2
0	3452	3.1	2
0	3497	3.15	3
0	3498	3.15	1
0	3499	3.15	2
0	3500	3.15	2
0	3533	3.2	3
0	3534	3.2	1
0	3535	3.2	2
0	3536	3.2	2
0	3541	3.2	3
0	3542	3.2	1
0	3543	3.2	2
0	3544	3.2	2
0	3585	3.25	3
0	3586	3.25	1
0	3587	3.25	2
0	3588	3.25	2
0	3621	3.3	3
0	3622	3.3	1
0	3623	3.3	2
0	3624	3.3	2
0	3629	3.3	3
0	3630	3.3	1
0	3631	3.3	2
0	3632	3.3	2
0	3839	3.35	3
0	3840	3.35	1
0	3841	3.35	2
0	3842	3.35	2
0	3893	3.4	3
0	3894	3.4	1
0	3895	3.4	2
0	3896	3.4	2
0	3901	3.4	3
0	3902	3.4	1
0	3903	3.4	2
0	3904	3.4	2
0	3945	3.45	3
0	3946	3.45	1
0	3947	3.45	2
0	3948	3.45	2
0	3981	3.5	3
0	3982	3.5	1
0	3983	3.5	2
0	3984	3.5	2
0	3989	3.5	3
0	3990	3.5	1
0	3991	3.5	2
0	3992	3.5	2
0	4033	3.55	3
0	4034	3.55	1
0	4035	3.55	2
0	4036	3.55	2
0	4069	3.6	3
0	4070	3.6	1
0	4071	3.6	2
0	4072	3.6	2
0	4077	3.6	3
0	4078	3.6	1
0	4079	3.6	2
0	4080	3.6	2
0	4121	3.65	3
0	4122	3.65	1
0	4123	3.65	2
0	4124	3.65	2
0	4157	3.7	3
0	4158	3.7	1
0	4159	3.7	2
0	4160	3.7	2
0	4165	3.7	3
0	4166	3.7	1
0	4167	3.7	2
0	4168	3.7	2
0	4209	3.75	3
0	4210	3.75	1
0	4211	3.75	2
0	4212	3.75	2
0	4245	3.8	3
0	4246	3.8	1
0	4247	3.8	2
0	4248	3.8	2
0	4253	3.8	3
0	4254	3.8	1
0	4255	3.8	2
0	4256	3.8	2
0	4297	3.85	3
0	4298	3.85	1
0	4299	3.85	2
0	4300	3.85	2
0	4499	3.9	3
0	4500	3.9	1
0	4501	3.9	2
0	4502	3.9	2
0	4507	3.9	3
0	4508	3.9	1
0	4509	3.9	2
0	4510	3.9	2
0	4569	3.95	3
0	4570	3.95	1
0	4571	3.95	2
0	4572	3.95	2
0	4605	4	3
0	4606	4	1
0	4607	4	2
0	4608	4	2
0	4613	4	3
0	4614	4	1
0	4615	4	2
0	4616	4	2
0	4657	4.05	3
0	4658	4.05	1
0	4659	4.05	2
0	4660	4.05	2
0	4697	4.1	3
0	4698	4.1	1
0	4699	4.1	2
0	4700	4.1	2
0	4705	4.1	3
0	4706	4.1	1
0	4707	4.1	2
0	4708	4.1	2
0	4753	4.15	3
0	4754	4.15	2
0	4755	4.15	3
0	4756	4.15	2
0	4789	4.2	3
0	4790	4.2	2
0	4791	4.2	3
0	4792	4.2	2
0	4797	4.2	3
0	4798	4.2	2
0	4799	4.2	3
0	4800	4.2	2
0	4841	4.25	3
0	4842	4.25	2
0	4843	4.25	3
0	4844	4.25	2
0	4877	4.3	3
0	4878	4.3	2
0	4879	4.3	3
0	4880	4.3	2
0	4885	4.3	3
0	4886	4.3	2
0	4887	4.3	3
0	4888	4.3	2
0	4929	4.35	3
0	4930	4.35	2
0	4931	4.35	3
0	4932	4.35	2
0	4965	4.4	3
0	4966	4.4	2
0	4967	4.4	3
0	4968	4.4	2
0	4973	4.4	3
0	4974	4.4	2
0	4975	4.4	3
0	4976	4.4	2
0	5183	4.45	3
0	5184	4.45	2
0	5185	4.45	3
0	5186	4.45	2
0	5231	4.5	3
0	5232	4.5	2
0	5233	4.5	3
0	5234	4.5	2
0	5239	4.5	3
0	5240	4.5	2
0	5241	4.5	3
0	5242	4.5	2
0	5283	4.55	3
0	5284	4.55	2
0	5285	4.55	3
0	5286	4.55	2
0	5319	4.6	3
0	5320	4.6	2
0	5321	4.6	3
0	5322	4.6	2
0	5327	4.6	3
0	5328	4.6	2
0	5329	4.6	3
0	5330	4.6	2
0	5371	4.65	3
0	5372	4.65	2
0	5373	4.65	3
0	5374	4.65	2
0	5407	4.7	3
0	5408	4.7	2
0	5409	4.7	3
0	5410	4.7	2
0	5415	4.7	3
0	5416	4.7	2
0	5417	4.7	3
0	5418	4.7	2
0	5459	4.75	3
0	5460	4.75	2
0	5461	4.75	3
0	5462	4.75	2
0	5495	4.8	3
0	5496	4.8	2
0	5497	4.8	3
0	5498	4.8	2
0	5503	4.8	3
0	5504	4.8	2
0	5505	4.8	3
0	5506	4.8	2
0	5547	4.85	3
0	5548	4.85	2
0	5549	4.85	3
0	5550	4.85	2
0	5583	4.9	3
0	5584	4.9	2
0	5585	4.9	3
0	5586	4.9	2
0	5591	4.9	3
0	5592	4.9	2
0	5593	4.9	3
0	5594	4.9	2
0	5635	4.95	3
0	5636	4.95	2
0	5637	4.95	3
0	5638	4.95	2
0	5841	5	3
0	5842	5	2
0	5843	5	3
0	5844	5	2
0	5849	5	3
0	5850	5	2
0	5851	5	3
0	5852	5	2
0	5911	5.05	3
0	5912	5.05	2
0	5913	5.05	3
0	5914	5.05	2
0	5951	5.1	3
0	5952	5.1	2
0	5953	5.1	3
0	5954	5.1	2
0	5959	5.1	3
0	5960	5.1	2
0	5961	5.1	3
0	5962	5.1	2
0	6007	5.15	3
0	6008	5.15	2
0	6009	5.15	3
0	6010	5.15	2
0	6043	5.2	3
0	6044	5.2	2
0	6045	5.2	3
0	6046	5.2	2
0	6051	5.2	3
0	6052	5.2	2
0	6053	5.2	3
0	6054	5.2	2
0	6117	5.25	3
0	6118	5.25	2
0	6119	5.25	3
0	6120	5.25	2
0	6153	5.3	3
0	6154	5.3	2
0	6155	5.3	3
0	6156	5.3	2
0	6161	5.3	3
0	6162	5.3	2
0	6163	5.3	3
0	6164	5.3	2
0	6205	5.35	3
0	6206	5.35	2
0	6207	5.35	3
0	6208	5.35	2
0	6241	5.4	3
0	6242	5.4	2
0	6243	5.4	3
0	6244	5.4	2
0	6249	5.4	3
0	6250	5.4	2
0	6251	5.4	3
0	6252	5.4	2
0	6293	5.45	3
0	6294	5.45	2
0	6295	5.45	3
0	6296	5.45	2
0	6329	5.5	3
0	6330	5.5	2
0	6331	5.5	3
0	6332	5.5	2
0	6337	5.5	3
0	6338	5.5	2
0	6339	5.5	3
0	6340	5.5	2
0	6547	5.55	3
0	6548	5.55	2
0	6549	5.55	3
0	6550	5.55	2
0	6601	5.6	3
0	6602	5.6	2
0	6603	5.6	3
0	6604	5.6	2
0	6609	5.6	3
0	6610	5.6	2
0	6611	5.6	3
0	6612	5.6	2
0	6653	5.65	3
0	6654	5.65	2
0	6655	5.65	3
0	6656	5.65	2
0	6689	5.7	3
0	6690	5.7	2
0	6691	5.7	3
0	6692	5.7	2
0	6697	5.7	3
0	6698	5.7	2
0	6699	5.7	3
0	6700	5.7	2
0	6741	5.75	3
0	6742	5.75	2
0	6743	5.75	3
0	6744	5.75	2
0	6782	5.8	3
0	6783	5.8	2
0	6784	5.8	3
0	6785	5.8	2
0	6790	5.8	3
0	6791	5.8	2
0	6792	5.8	3
0	6793	5.8	2
0	6834	5.85	3
0	6835	5.85	2
0	6836	5.85	3
0	6837	5.85	2
0	6870	5.9	3
0	6871	5.9	2
0	6872	5.9	3
0	6873	5.9	2
0	6878	5.9	3
0	6879	5.9	2
0	6880	5.9	3
0	6881	5.9	2
0	6922	5.95	3
0	6923	5.95	2
0	6924	5.95	3
0	6925	5.95	2
0	6962	6	3
0	6963	6	2
0	6964	6	3
0	6965	6	2
0	6970	6	3
0	6971	6	2
0	6972	6	3
0	6973	6	2
0	7014	6.05	3
0	7015	6.05	2
0	7016	6.05	3
0	7017	6.05	2
0	7220	6.1	3
0	7221	6.1	2
0	7222	6.1	3
0	7223	6.1	2
0	7228	6.1	3
0	7229	6.1	2
0	7230	6.1	3
0	7231	6.1	2
0	7288	6.15	3
0	7289	6.15	2
0	7290	6.15	3
0	7291	6.15	2
0	7324	6.2	3
0	7325	6.2	2
0	7326	6.2	3
0	7327	6.2	2
0	7332	6.2	3
0	7333	6.2	2
0	7334	6.2	3
0	7335	6.2	2
0	7376	6.25	3
0	7377	6.25	2
0	7378	6.25	3
0	7379	6.25	2
0	7412	6.3	3
0	7413	6.3	2
0	7414	6.3	3
0	7415	6.3	2
0	7420	6.3	3
0	7421	6.3	2
0	7422	6.3	3
0	7423	6.3	2
0	7464	6.35	3
0	7465	6.35	2
0	7466	6.35	3
0	7467	6.35	2
0	7500	6.4	3
0	7501	6.4	2
0	7502	6.4	3
0	7503	6.4	2
0	7508	6.4	3
0	7509	6.4	2
0	7510	6.4	3
0	7511	6.4	2
0	7552	6.45	3
0	7553	6.45	2
0	7554	6.45	3
0	7555	6.45	2
0	7588	6.5	3
0	7589	6.5	2
0	7590	6.5	3
0	7591	6.5	2
0	7596	6.5	3
0	7597	6.5	2
0	7598	6.5	3
0	7599	6.5	2
0	7640	6.55	3
0	7641	6.55	2
0	7642	6.55	3
0	7643	6.55	2
0	7676	6.6	3
0	7677	6.6	2
0	7678	6.6	3
0	7679	6.6	2
0	7684	6.6	3
0	7685	6.6	2
0	7686	6.6	3
0	7687	6.6	2
0	7894	6.65	3
0	7895	6.65	2
0	7896	6.65	3
0	7897	6.65	2
0	7948	6.7	3
0	7949	6.7	2
0	7950	6.7	3
0	7951	6.7	2
0	7956	6.7	3
0	7957	6.7	2
0	7958	6.7	3
0	7959	6.7	2
0	8000	6.75	3
0	8001	6.75	2
0	8002	6.75	3
0	8003	6.75	2
0	8036	6.8	3
0	8037	6.8	2
0	8038	6.8	3
0	8039	6.8	2
0	8044	6.8	3
0	8045	6.8	2
0	8046	6.8	3
0	8047	6.8	2
0	8093	6.85	3
0	8094	6.85	2
0	8095	6.85	3
0	8096	6.85	2
0	8129	6.9	3
0	8130	6.9	2
0	8131	6.9	3
0	8132	6.9	2
0	8137	6.9	3
0	8138	6.9	2
0	8139	6.9	3
0	8140	6.9	2
0	8181	6.95	3
0	8182	6.95	2
0	8183	6.95	3
0	8184	6.95	2
0	8221	7	3
0	8222	7	2
0	8223	7	3
0	8224	7	2
0	8229	7	3
0	8230	7	2
0	8231	7	3
0	8232	7	2
0	8273	7.05	3
0	8274	7.05	2
0	8275	7.05	3
0	8276	7.05	2
0	8313	7.1	3
0	8314	7.1	2
0	8315	7.1	3
0	8316	7.1	2
0	8321	7.1	3
0	8322	7.1	2
0	8323	7.1	3
0	8324	7.1	2
0	8369	7.15	3
0	8370	7.15	2
0	8371	7.15	3
0	8372	7.15	2
0	8571	7.2	3
0	8572	7.2	2
0	8573	7.2	3
0	8574	7.2	2
0	8579	7.2	3
0	8580	7.2	2
0	8581	7.2	3
0	8582	7.2	2
0	8641	7.25	3
0	8642	7.25	2
0	8643	7.25	3
0	8644	7.25	2
0	8677	7.3	3
0	8678	7.3	2
0	8679	7.3	3
0	8680	7.3	2
0	8685	7.3	3
0	8686	7.3	2
0	8687	7.3	3
0	8688	7.3	2
0	8729	7.35	3
0	8730	7.35	2
0	8731	7.35	3
0	8732	7.35	2
0	8782	7.4	3
0	8783	7.4	2
0	8784	7.4	3
0	8785	7.4	2
0	8790	7.4	3
0	8791	7.4	2
0	8792	7.4	3
0	8793	7.4	2
0	8834	7.45	3
0	8835	7.45	2
0	8836	7.45	3
0	8837	7.45	2
0	8870	7.5	3
0	8871	7.5	2
0	8872	7.5	3
0	8873	7.5	2
0	8878	7.5	3
0	8879	7.5	2
0	8880	7.5	3
0	8881	7.5	2
0	8927	7.55	3
0	8928	7.55	2
0	8929	7.55	3
0	8930	7.55	2
0	8963	7.6	3
0	8964	7.6	2
0	8965	7.6	3
0	8966	7.6	2
0	8971	7.6	3
0	8972	7.6	2
0	8973	7.6	3
0	8974	7.6	2
0	9015	7.65	3
0	9016	7.65	2
0	9017	7.65	3
0	9018	7.65	2
0	9051	7.7	3
0	9052	7.7	2
0	9053	7.7	3
0	9054	7.7	2
0	9059	7.7	3
0	9060	7.7	2
0	9061	7.7	3
0	9062	7.7	2
0	9269	7.75	3
0	9270	7.75	2
0	9271	7.75	3
0	9272	7.75	2
0	9323	7.8	3
0	9324	7.8	2
0	9325	7.8	3
0	9326	7.8	2
0	9331	7.8	3
0	9332	7.8	2
0	9333	7.8	3
0	9334	7.8	2
0	9375	7.85	3
0	9376	7.85	2
0	9377	7.85	3
0	9378	7.85	2
0	9411	7.9	3
0	9412	7.9	2
0	9413	7.9	3
0	9414	7.9	2
0	9419	7.9	3
0	9420	7.9	2
0	9421	7.9	3
0	9422	7.9	2
0	9463	7.95	3
0	9464	7.95	2
0	9465	7.95	3
0	9466	7.95	2
0	9503	8	3
0	9504	8	2
0	9505	8	3
0	9506	8	2
0	9511	8	3
0	9512	8	2
0	9513	8	3
0	9514	8	2
0	9555	8.05	3
0	9556	8.05	2
0	9557	8.05	3
0	9558	8.05	2
0	9595	8.1	3
0	9596	8.1	2
0	9597	8.1	3
0	9598	8.1	2
0	9603	8.1	3
0	9604	8.1	2
0	9605	8.1	3
0	9606	8.1	2
0	9651	8.15	3
0	9652	8.15	2
0	9653	8.15	3
0	9654	8.15	2
0	9687	8.2	3
0	9688	8.2	2
0	9689	8.2	3
0	9690	8.2	2
0	9695	8.2	3
0	9696	8.2	2
0	9697	8.2	3
0	9698	8.2	2
0	9739	8.25	3
0	9740	8.25	2
0	9741	8.25	3
0	9742	8.25	2
0	9935	8.3	3
0	9936	8.3	2
0	9937	8.3	3
0	9938	8.3	2
0	9943	8.3	3
0	9944	8.3	2
0	9945	8.3	3
0	9946	8.3	2
0	10005	8.35	3
0	10006	8.35	2
0	10007	8.35	3
0	10008	8.35	2
0	10041	8.4	3
0	10042	8.4	2
0	10043	8.4	3
0	10044	8.4	2
0	10049	8.4	3
0	10050	8.4	2
0	10051	8.4	3
0	10052	8.4	2
0	10093	8.45	3
0	10094	8.45	2
0	10095	8.45	3
0	10096	8.45	2
0	10129	8.5	3
0	10130	8.5	2
0	10131	8.5	3
0	10132	8.5	2
0	10137	8.5	3
0	10138	8.5	2
0	10139	8.5	3
0	10140	8.5	2
0	10181	8.55	3
0	10182	8.55	2
0	10183	8.55	3
0	10184	8.55	2
0	10217	8.6	3
0	10218	8.6	2
0	10219	8.6	3
0	10220	8.6	2
0	10225	8.6	3
0	10226	8.6	2
0	10227	8.6	3
0	10228	8.6	2
0	10269	8.65	3
0	10270	8.65	2
0	10271	8.65	3
0	10272	8.65	2
0	10305	8.7	3
0	10306	8.7	2
0	10307	8.7	3
0	10308	8.7	2
0	10313	8.7	3
0	10314	8.7	2
0	10315	8.7	3
0	10316	8.7	2
0	10357	8.75	3
0	10358	8.75	2
0	10359	8.75	3
0	10360	8.75	2
0	10393	8.8	3
0	10394	8.8	2
0	10395	8.8	3
0	10396	8.8	2
0	10401	8.8	3
0	10402	8.8	2
0	10403	8.8	3
0	10404	8.8	2
0	10602	8.85	3
0	10603	8.85	2
0	10604	8.85	3
0	10605	8.85	2
0	10641	8.9	3
0	10642	8.9	2
0	10643	8.9	3
0	10644	8.9	2
0	10649	8.9	3
0	10650	8.9	2
0	10651	8.9	3
0	10652	8.9	2
0	10710	8.95	3
0	10711	8.95	2
0	10712	8.95	3
0	10713	8.95	2
0	10750	9	3
0	10751	9	2
0	10752	9	3
0	10753	9	2
0	10758	9	3
0	10759	9	2
0	10760	9	3
0	10761	9	2
0	10802	9.05	3
0	10803	9.05	2
0	10804	9.05	3
0	10805	9.05	2
0	10865	9.1	3
0	10866	9.1	2
0	10867	9.1	3
0	10868	9.1	2
0	10873	9.1	3
0	10874	9.1	2
0	10875	9.1	3
0	10876	9.1	2
0	10921	9.15	3
0	10922	9.15	2
0	10923	9.15	3
0	10924	9.15	2
0	10957	9.2	3
0	10958	9.2	2
0	10959	9.2	3
0	10960	9.2	2
0	10965	9.2	3
0	10966	9.2	2
0	10967	9.2	3
0	10968	9.2	2
0	11009	9.25	3
0	11010	9.25	2
0	11011	9.25	3
0	11012	9.25	2
0	11045	9.3	3
0	11046	9.3	2
0	11047	9.3	3
0	11048	9.3	2
0	11053	9.3	3
0	11054	9.3	2
0	11055	9.3	3
0	11056	9.3	2
0	11097	9.35	3
0	11098	9.35	2
0	11099	9.35	3
0	11100	9.35	2
0	11294	9.4	3
0	11295	9.4	2
0	11296	9.4	3
0	11297	9.4	2
0	11302	9.4	3
0	11303	9.4	2
0	11304	9.4	3
0	11305	9.4	2
0	11346	9.45	3
0	11347	9.45	2
0	11348	9.45	3
0	11349	9.45	2
0	11387	9.5	3
0	11388	9.5	2
0	11389	9.5	3
0	11390	9.5	2
0	11395	9.5	3
0	11396	9.5	2
0	11397	9.5	3
0	11398	9.5	2
0	11462	9.55	3
0	11463	9.55	2
0	11464	9.55	3
0	11465	9.55	2
0	11498	9.6	3
0	11499	9.6	2
0	11500	9.6	3
0	11501	9.6	2
0	11506	9.6	3
0	11507	9.6	2
0	11508	9.6	3
0	11509	9.6	2
0	11550	9.65	3
0	11551	9.65	2
0	11552	9.65	3
0	11553	9.65	2
0	11586	9.7	3
0	11587	9.7	2
0	11588	9.7	3
0	11589	9.7	2
0	11594	9.7	3
0	11595	9.7	2
0	11596	9.7	3
0	11597	9.7	2
0	11638	9.75	3
0	11639	9.75	2
0	11640	9.75	3
0	11641	9.75	2
0	11674	9.8	3
0	11675	9.8	2
0	11676	9.8	3
0	11677	9.8	2
0	11682	9.8	3
0	11683	9.8	2
0	11684	9.8	3
0	11685	9.8	2
0	11726	9.85	3
0	11727	9.85	2
0	11728	9.85	3
0	11729	9.85	2
0	11762	9.9	3
0	11763	9.9	2
0	11764	9.9	3
0	11765	9.9	2
0	11770	9.9	3
0	11771	9.9	2
0	11772	9.9	3
0	11773	9.9	2
0	11975	9.95	3
0	11976	9.95	2
0	11977	9.95	3
0	11978	9.95	2
0	12015	10	3
0	12016	10	2
0	12017	10	3
0	12018	10	2
0	12023	10	3
0	12024	10	2
0	12025	10	3
0	12026	10	2
0	12067	10.05	3
0	12068	10.05	2
0	12069	10.05	3
0	12070	10.05	2
0	12130	10.1	3
0	12131	10.1	2
0	12132	10.1	3
0	12133	10.1	2
0	12134	10.1	3
0	12135	10.1	2
0	12136	10.1	3
0	12137	10.1	2
0	12183	10.15	3
0	12184	10.15	2
0	12185	10.15	3
0	12186	10.15	2
0	12219	10.2	3
0	12220	10.2	2
0	12221	10.2	3
0	12222	10.2	2
0	12223	10.2	3
0	12224	10.2	2
0	12225	10.2	3
0	12226	10.2	2
0	12267	10.25	3
0	12268	10.25	2
0	12269	10.25	3
0	12270	10.25	2
0	12303	10.3	3
0	12304	10.3	2
0	12305	10.3	3
0	12306	10.3	2
0	12307	10.3	3
0	12308	10.3	2
0	12309	10.3	3
0	12310	10.3	2
0	12351	10.35	3
0	12352	10.35	2
0	12353	10.35	3
0	12354	10.35	2
0	12387	10.4	3
0	12388	10.4	2
0	12389	10.4	3
0	12390	10.4	2
0	12391	10.4	3
0	12392	10.4	2
0	12393	10.4	3
0	12394	10.4	2
0	12435	10.45	3
0	12436	10.45	2
0	12437	10.45	3
0	12438	10.45	2
0	12654	10.5	3
0	12655	10.5	2
0	12656	10.5	3
0	12657	10.5	2
0	12658	10.5	3
0	12659	10.5	2
0	12660	10.5	3
0	12661	10.5	2
0	12778	10.55	3
0	12779	10.55	2
0	12780	10.55	3
0	12781	10.55	2
0	12872	10.6	3
0	12873	10.6	2
0	12874	10.6	3
0	12875	10.6	2
0	12876	10.6	3
0	12877	10.6	2
0	12878	10.6	3
0	12879	10.6	2
0	12976	10.65	3
0	12977	10.65	2
0	12978	10.65	3
0	12979	10.65	2
0	13029	10.7	3
0	13030	10.7	2
0	13031	10.7	3
0	13032	10.7	2
0	13033	10.7	3
0	13034	10.7	2
0	13035	10.7	3
0	13036	10.7	2
0	13077	10.75	3
0	13078	10.75	2
0	13079	10.75	3
0	13080	10.75	2
0	13113	10.8	3
0	13114	10.8	2
0	13115	10.8	3
0	13116	10.8	2
0	13117	10.8	3
0	13118	10.8	2
0	13119	10.8	3
0	13120	10.8	2
0	13166	10.85	3
0	13167	10.85	2
0	13168	10.85	3
0	13169	10.85	2
0	13202	10.9	3
0	13203	10.9	2
0	13204	10.9	3
0	13205	10.9	2
0	13206	10.9	3
0	13207	10.9	2
0	13208	10.9	3
0	13209	10.9	2
0	13250	10.95	3
0	13251	10.95	2
0	13252	10.95	3
0	13253	10.95	2
0	13290	11	3
0	13291	11	2
0	13292	11	3
0	13293	11	2
0	13294	11	3
0	13295	11	2
0	13296	11	3
0	13297	11	2
0	13533	11.05	3
0	13534	11.05	2
0	13535	11.05	3
0	13536	11.05	2
0	13761	11.1	3
0	13762	11.1	2
0	13763	11.1	3
0	13764	11.1	2
0	13765	11.1	3
0	13766	11.1	2
0	13767	11.1	3
0	13768	11.1	2
0	13947	11.15	3
0	13948	11.15	2
0	13949	11.15	3
0	13950	11.15	2
0	14147	11.2	3
0	14148	11.2	2
0	14149	11.2	3
0	14150	11.2	2
0	14151	11.2	3
0	14152	11.2	2
0	14153	11.2	3
0	14154	11.2	2
0	14195	11.25	3
0	14196	11.25	2
0	14197	11.25	3
0	14198	11.25	2
0	14231	11.3	3
0	14232	11.3	2
0	14233	11.3	3
0	14234	11.3	2
0	14235	11.3	3
0	14236	11.3	2
0	14237	11.3	3
0	14238	11.3	2
0	14279	11.35	3
0	14280	11.35	2
0	14281	11.35	3
0	14282	11.35	2
0	14315	11.4	3
0	14316	11.4	2
0	14317	11.4	3
0	14318	11.4	2
0	14319	11.4	3
0	14320	11.4	2
0	14321	11.4	3
0	14322	11.4	2
0	14363	11.45	3
0	14364	11.45	2
0	14365	11.45	3
0	14366	11.45	2
0	14399	11.5	3
0	14400	11.5	2
0	14401	11.5	3
0	14402	11.5	2
0	14403	11.5	3
0	14404	11.5	2
0	14405	11.5	3
0	14406	11.5	2
0	14447	11.55	3
0	14448	11.55	2
0	14449	11.55	3
0	14450	11.55	2
0	14611	11.6	3
0	14612	11.6	2
0	14613	11.6	3
0	14614	11.6	2
0	14615	11.6	3
0	14616	11.6	2
0	14617	11.6	3
0	14618	11.6	2
0	14735	11.65	3
0	14736	11.65	2
0	14737	11.65	3
0	14738	11.65	2
0	14771	11.7	3
0	14772	11.7	2
0	14773	11.7	3
0	14774	11.7	2
0	14775	11.7	3
0	14776	11.7	2
0	14777	11.7	3
0	14778	11.7	2
0	14842	11.75	3
0	14843	11.75	2
0	14844	11.75	3
0	14845	11.75	2
0	14878	11.8	3
0	14879	11.8	2
0	14880	11.8	3
0	14881	11.8	2
0	14882	11.8	3
0	14883	11.8	2
0	14884	11.8	3
0	14885	11.8	2
0	14926	11.85	3
0	14927	11.85	2
0	14928	11.85	3
0	14929	11.85	2
0	14962	11.9	3
0	14963	11.9	2
0	14964	11.9	3
0	14965	11.9	2
0	14966	11.9	3
0	14967	11.9	2
0	14968	11.9	3
0	14969	11.9	2
0	15010	11.95	3
0	15011	11.95	2
0	15012	11.95	3
0	15013	11.95	2
0	15048	12	3
0	15049	12	2
0	15050	12	3
0	15051	12	2
0	15052	12	3
0	15053	12	2
0	15054	12	3
0	15055	12	2
0	15096	12.05	3
0	15097	12.05	2
0	15098	12.05	3
0	15099	12.05	2
0	15136	12.1	3
0	15137	12.1	2
0	15138	12.1	3
0	15139	12.1	2
0	15140	12.1	3
0	15141	12.1	2
0	15142	12.1	3
0	15143	12.1	2
0	15327	12.15	3
0	15328	12.15	2
0	15329	12.15	3
0	15330	12.15	2
0	15382	12.2	3
0	15383	12.2	2
0	15384	12.2	3
0	15385	12.2	2
0	15386	12.2	3
0	15387	12.2	2
0	15388	12.2	3
0	15389	12.2	2
0	15430	12.25	3
0	15431	12.25	2
0	15432	12.25	3
0	15433	12.25	2
0	15494	12.3	3
0	15495	12.3	2
0	15496	12.3	3
0	15497	12.3	2
0	15498	12.3	3
0	15499	12.3	2
0	15500	12.3	3
0	15501	12.3	2
0	15542	12.35	3
0	15543	12.35	2
0	15544	12.35	3
0	15545	12.35	2
0	15578	12.4	3
0	15579	12.4	2
0	15580	12.4	3
0	15581	12.4	2
0	15582	12.4	3
0	15583	12.4	2
0	15584	12.4	3
0	15585	12.4	2
0	15631	12.45	3
0	15632	12.45	2
0	15633	12.45	3
0	15634	12.45	2
0	15667	12.5	3
0	15668	12.5	2
0	15669	12.5	3
0	15670	12.5	2
0	15671	12.5	3
0	15672	12.5	2
0	15673	12.5	3
0	15674	12.5	2
0	15715	12.55	3
0	15716	12.55	2
0	15717	12.55	3
0	15718	12.55	2
0	15751	12.6	3
0	15752	12.6	2
0	15753	12.6	3
0	15754	12.6	2
0	15755	12.6	3
0	15756	12.6	2
0	15757	12.6	3
0	15758	12.6	2
0	15840	12.65	3
0	15841	12.65	2
0	15842	12.65	3
0	15843	12.65	2
0	15999	12.7	3
0	16000	12.7	2
0	16001	12.7	3
0	16002	12.7	2
0	16003	12.7	3
0	16004	12.7	2
0	16005	12.7	3
0	16006	12.7	2
0	16047	12.75	3
0	16048	12.75	2
0	16049	12.75	3
0	16050	12.75	2
0	16106	12.8	3
0	16107	12.8	2
0	16108	12.8	3
0	16109	12.8	2
0	16110	12.8	3
0	16111	12.8	2
0	16112	12.8	3
0	16113	12.8	2
0	16177	12.85	3
0	16178	12.85	2
0	16179	12.85	3
0	16180	12.85	2
0	16213	12.9	3
0	16214	12.9	2
0	16215	12.9	3
0	16216	12.9	2
0	16217	12.9	3
0	16218	12.9	2
0	16219	12.9	3
0	16220	12.9	2
0	16261	12.95	3
0	16262	12.95	2
0	16263	12.95	3
0	16264	12.95	2
0	16297	13	3
0	16298	13	2
0	16299	13	3
0	16300	13	2
0	16301	13	3
0	16302	13	2
0	16303	13	3
0	16304	13	2
0	16345	13.05	3
0	16346	13.05	2
0	16347	13.05	3
0	16348	13.05	2
0	16385	13.1	3
0	16386	13.1	2
0	16387	13.1	3
0	16388	13.1	2
0	16389	13.1	3
0	16390	13.1	2
0	16391	13.1	3
0	16392	13.1	2
0	16438	13.15	3
0	16439	13.15	2
0	16440	13.15	3
0	16441	13.15	2
0	16531	13.2	3
0	16532	13.2	2
0	16533	13.2	3
0	16534	13.2	2
0	16535	13.2	3
0	16536	13.2	2
0	16537	13.2	3
0	16538	13.2	2
0	16725	13.25	3
0	16726	13.25	2
0	16727	13.25	3
0	16728	13.25	2
0	16780	13.3	3
0	16781	13.3	2
0	16782	13.3	3
0	16783	13.3	2
0	16784	13.3	3
0	16785	13.3	2
0	16786	13.3	3
0	16787	13.3	2
0	16851	13.35	3
0	16852	13.35	2
0	16853	13.35	3
0	16854	13.35	2
0	16910	13.4	3
0	16911	13.4	2
0	16912	13.4	3
0	16913	13.4	2
0	16914	13.4	3
0	16915	13.4	2
0	16916	13.4	3
0	16917	13.4	2
0	16958	13.45	3
0	16959	13.45	2
0	16960	13.45	3
0	16961	13.45	2
0	16994	13.5	3
0	16995	13.5	2
0	16996	13.5	3
0	16997	13.5	2
0	16998	13.5	3
0	16999	13.5	2
0	17000	13.5	3
0	17001	13.5	2
0	17042	13.55	3
0	17043	13.55	2
0	17044	13.55	3
0	17045	13.55	2
0	17078	13.6	3
0	17079	13.6	2
0	17080	13.6	3
0	17081	13.6	2
0	17082	13.6	3
0	17083	13.6	2
0	17084	13.6	3
0	17085	13.6	2
0	17126	13.65	3
0	17127	13.65	2
0	17128	13.65	3
0	17129	13.65	2
0	17162	13.7	3
0	17163	13.7	2
0	17164	13.7	3
0	17165	13.7	2
0	17166	13.7	3
0	17167	13.7	2
0	17168	13.7	3
0	17169	13.7	2
0	17233	13.75	3
0	17234	13.75	2
0	17235	13.75	3
0	17236	13.75	2
0	17384	13.8	3
0	17385	13.8	2
0	17386	13.8	3
0	17387	13.8	2
0	17388	13.8	3
0	17389	13.8	2
0	17390	13.8	3
0	17391	13.8	2
0	17432	13.85	3
0	17433	13.85	2
0	17434	13.85	3
0	17435	13.85	2
0	17508	13.9	3
0	17509	13.9	2
0	17510	13.9	3
0	17511	13.9	2
0	17512	13.9	3
0	17513	13.9	2
0	17514	13.9	3
0	17515	13.9	2
0	17579	13.95	3
0	17580	13.95	2
0	17581	13.95	3
0	17582	13.95	2
0	17615	14	3
0	17616	14	2
0	17617	14	3
0	17618	14	2
0	17619	14	3
0	17620	14	2
0	17621	14	3
0	17622	14	2
0	17680	14.05	3
0	17681	14.05	2
0	17682	14.05	3
0	17683	14.05	2
0	17720	14.1	3
0	17721	14.1	2
0	17722	14.1	3
0	17723	14.1	2
0	17724	14.1	3
0	17725	14.1	2
0	17726	14.1	3
0	17727	14.1	2
0	17773	14.15	3
0	17774	14.15	2
0	17775	14.15	3
0	17776	14.15	2
0	17809	14.2	3
0	17810	14.2	2
0	17811	14.2	3
0	17812	14.2	2
0	17813	14.2	3
0	17814	14.2	2
0	17815	14.2	3
0	17816	14.2	2
0	17857	14.25	3
0	17858	14.25	2
0	17859	14.25	3
0	17860	14.25	2
0	17910	14.3	3
0	17911	14.3	2
0	17912	14.3	3
0	17913	14.3	2
0	17914	14.3	3
0	17915	14.3	2
0	17916	14.3	3
0	17917	14.3	2
0	18096	14.35	3
0	18097	14.35	2
0	18098	14.35	3
0	18099	14.35	2
0	18151	14.4	3
0	18152	14.4	2
0	18153	14.4	3
0	18154	14.4	2
0	18155	14.4	3
0	18156	14.4	2
0	18157	14.4	3
0	18158	14.4	2
0	18227	14.45	3
0	18228	14.45	2
0	18229	14.45	3
0	18230	14.45	2
0	18286	14.5	3
0	18287	14.5	2
0	18288	14.5	3
0	18289	14.5	2
0	18290	14.5	3
0	18291	14.5	2
0	18292	14.5	3
0	18293	14.5	2
0	18334	14.55	3
0	18335	14.55	2
0	18336	14.55	3
0	18337	14.55	2
0	18370	14.6	3
0	18371	14.6	2
0	18372	14.6	3
0	18373	14.6	2
0	18374	14.6	3
0	18375	14.6	2
0	18376	14.6	3
0	18377	14.6	2
0	18418	14.65	3
0	18419	14.65	2
0	18420	14.65	3
0	18421	14.65	2
0	18454	14.7	3
0	18455	14.7	2
0	18456	14.7	3
0	18457	14.7	2
0	18458	14.7	3
0	18459	14.7	2
0	18460	14.7	3
0	18461	14.7	2
0	18502	14.75	3
0	18503	14.75	2
0	18504	14.75	3
0	18505	14.75	2
0	18538	14.8	3
0	18539	14.8	2
0	18540	14.8	3
0	18541	14.8	2
0	18542	14.8	3
0	18543	14.8	2
0	18544	14.8	3
0	18545	14.8	2
0	18591	14.85	3
0	18592	14.85	2
0	18593	14.85	3
0	18594	14.85	2
0	18742	14.9	3
0	18743	14.9	2
0	18744	14.9	3
0	18745	14.9	2
0	18746	14.9	3
0	18747	14.9	2
0	18748	14.9	3
0	18749	14.9	2
0	18790	14.95	3
0	18791	14.95	2
0	18792	14.95	3
0	18793	14.95	2
0	18826	15	3
0	18827	15	2
0	18828	15	3
0	18829	15	2
0	18830	15	3
0	18831	15	2
0	18832	15	3
0	18833	15	2
0	18897	15.05	3
0	18898	15.05	2
0	18899	15.05	3
0	18900	15.05	2
0	18937	15.1	3
0	18938	15.1	2
0	18939	15.1	3
0	18940	15.1	2
0	18941	15.1	3
0	18942	15.1	2
0	18943	15.1	3
0	18944	15.1	2
0	18990	15.15	3
0	18991	15.15	2
0	18992	15.15	3
0	18993	15.15	2
0	19026	15.2	3
0	19027	15.2	2
0	19028	15.2	3
0	19029	15.2	2
0	19030	15.2	3
0	19031	15.2	2
0	19032	15.2	3
0	19033	15.2	2
0	19074	15.25	3
0	19075	15.25	2
0	19076	15.25	3
0	19077	15.25	2
0	19110	15.3	3
0	19111	15.3	2
0	19112	15.3	3
0	19113	15.3	2
0	19114	15.3	3
0	19115	15.3	2
0	19116	15.3	3
0	19117	15.3	2
0	19158	15.35	3
0	19159	15.35	2
0	19160	15.35	3
0	19161	15.35	2
0	19194	15.4	3
0	19195	15.4	2
0	19196	15.4	3
0	19197	15.4	2
0	19198	15.4	3
0	19199	15.4	2
0	19200	15.4	3
0	19201	15.4	2
0	19380	15.45	3
0	19381	15.45	2
0	19382	15.45	3
0	19383	15.45	2
0	19435	15.5	3
0	19436	15.5	2
0	19437	15.5	3
0	19438	15.5	2
0	19439	15.5	3
0	19440	15.5	2
0	19441	15.5	3
0	19442	15.5	2
0	19483	15.55	3
0	19484	15.55	2
0	19485	15.55	3
0	19486	15.55	2
0	19542	15.6	3
0	19543	15.6	2
0	19544	15.6	3
0	19545	15.6	2
0	19546	15.6	3
0	19547	15.6	2
0	19548	15.6	3
0	19549	15.6	2
0	19595	15.65	3
0	19596	15.65	2
0	19597	15.65	3
0	19598	15.65	2
0	19631	15.7	3
0	19632	15.7	2
0	19633	15.7	3
0	19634	15.7	2
0	19635	15.7	3
0	19636	15.7	2
0	19637	15.7	3
0	19638	15.7	2
0	19679	15.75	3
0	19680	15.75	2
0	19681	15.75	3
0	19682	15.75	2
0	19715	15.8	3
0	19716	15.8	2
0	19717	15.8	3
0	19718	15.8	2
0	19719	15.8	3
0	19720	15.8	2
0	19721	15.8	3
0	19722	15.8	2
0	19763	15.85	3
0	19764	15.85	2
0	19765	15.85	3
0	19766	15.85	2
0	19799	15.9	3
0	19800	15.9	2
0	19801	15.9	3
0	19802	15.9	2
0	19803	15.9	3
0	19804	15.9	2
0	19805	15.9	3
0	19806	15.9	2
0	19847	15.95	3
0	19848	15.95	2
0	19849	15.95	3
0	19850	15.95	2
0	20000	16	3
0	20001	16	2
0	20002	16	3
0	20003	16	2
0	20004	16	3
0	20005	16	2
0	20006	16	3
0	20007	16	2
0	20076	16.05	3
0	20077	16.05	2
0	20078	16.05	3
0	20079	16.05	2
0	20116	16.1	3
0	20117	16.1	2
0	20118	16.1	3
0	20119	16.1	2
0	20120	16.1	3
0	20121	16.1	2
0	20122	16.1	3
0	20123	16.1	2
0	20192	16.15	3
0	20193	16.15	2
0	20194	16.15	3
0	20195	16.15	2
0	20282	16.2	3
0	20283	16.2	2
0	20284	16.2	3
0	20285	16.2	2
0	20286	16.2	3
0	20287	16.2	2
0	20288	16.2	3
0	20289	16.2	2
0	20357	16.25	3
0	20358	16.25	2
0	20359	16.25	3
0	20360	16.25	2
0	20393	16.3	3
0	20394	16.3	2
0	20395	16.3	3
0	20396	16.3	2
0	20397	16.3	3
0	20398	16.3	2
0	20399	16.3	3
0	20400	16.3	2
0	20441	16.35	3
0	20442	16.35	2
0	20443	16.35	3
0	20444	16.35	2
0	20477	16.4	3
0	20478	16.4	2
0	20479	16.4	3
0	20480	16.4	2
0	20481	16.4	3
0	20482	16.4	2
0	20483	16.4	3
0	20484	16.4	2
0	20525	16.45	3
0	20526	16.45	2
0	20527	16.45	3
0	20528	16.45	2
0	20561	16.5	3
0	20562	16.5	2
0	20563	16.5	3
0	20564	16.5	2
0	20565	16.5	3
0	20566	16.5	2
0	20567	16.5	3
0	20568	16.5	2
0	20747	16.55	3
0	20748	16.55	2
0	20749	16.55	3
0	20750	16.55	2
0	20825	16.6	3
0	20826	16.6	2
0	20827	16.6	3
0	20828	16.6	2
0	20829	16.6	3
0	20830	16.6	2
0	20831	16.6	3
0	20832	16.6	2
0	20873	16.65	3
0	20874	16.65	2
0	20875	16.65	3
0	20876	16.65	2
0	20932	16.7	3
0	20933	16.7	2
0	20934	16.7	3
0	20935	16.7	2
0	20936	16.7	3
0	20937	16.7	2
0	20938	16.7	3
0	20939	16.7	2
0	21024	16.75	3
0	21025	16.75	2
0	21026	16.75	3
0	21027	16.75	2
0	21060	16.8	3
0	21061	16.8	2
0	21062	16.8	3
0	21063	16.8	2
0	21064	16.8	3
0	21065	16.8	2
0	21066	16.8	3
0	21067	16.8	2
0	21108	16.85	3
0	21109	16.85	2
0	21110	16.85	3
0	21111	16.85	2
0	21144	16.9	3
0	21145	16.9	2
0	21146	16.9	3
0	21147	16.9	2
0	21148	16.9	3
0	21149	16.9	2
0	21150	16.9	3
0	21151	16.9	2
0	21192	16.95	3
0	21193	16.95	2
0	21194	16.95	3
0	21195	16.95	2
0	21230	17	3
0	21231	17	2
0	21232	17	3
0	21233	17	2
0	21234	17	3
0	21235	17	2
0	21236	17	3
0	21237	17	2
0	21278	17.05	3
0	21279	17.05	2
0	21280	17.05	3
0	21281	17.05	2
0	21433	17.1	3
0	21434	17.1	2
0	21435	17.1	3
0	21436	17.1	2
0	21437	17.1	3
0	21438	17.1	2
0	21439	17.1	3
0	21440	17.1	2
0	21509	17.15	3
0	21510	17.15	2
0	21511	17.15	3
0	21512	17.15	2
0	21545	17.2	3
0	21546	17.2	2
0	21547	17.2	3
0	21548	17.2	2
0	21549	17.2	3
0	21550	17.2	2
0	21551	17.2	3
0	21552	17.2	2
0	21621	17.25	3
0	21622	17.25	2
0	21623	17.25	3
0	21624	17.25	2
0	21685	17.3	3
0	21686	17.3	2
0	21687	17.3	3
0	21688	17.3	2
0	21689	17.3	3
0	21690	17.3	2
0	21691	17.3	3
0	21692	17.3	2
0	21733	17.35	3
0	21734	17.35	2
0	21735	17.35	3
0	21736	17.35	2
0	21769	17.4	3
0	21770	17.4	2
0	21771	17.4	3
0	21772	17.4	2
0	21773	17.4	3
0	21774	17.4	2
0	21775	17.4	3
0	21776	17.4	2
0	21817	17.45	3
0	21818	17.45	2
0	21819	17.45	3
0	21820	17.45	2
0	21853	17.5	3
0	21854	17.5	2
0	21855	17.5	3
0	21856	17.5	2
0	21857	17.5	3
0	21858	17.5	2
0	21859	17.5	3
0	21860	17.5	2
0	21901	17.55	3
0	21902	17.55	2
0	21903	17.55	3
0	21904	17.55	2
0	21937	17.6	3
0	21938	17.6	2
0	21939	17.6	3
0	21940	17.6	2
0	21941	17.6	3
0	21942	17.6	2
0	21943	17.6	3
0	21944	17.6	2
0	22137	17.65	3
0	22138	17.65	2
0	22139	17.65	3
0	22140	17.65	2
0	22224	17.7	3
0	22225	17.7	2
0	22226	17.7	3
0	22227	17.7	2
0	22228	17.7	3
0	22229	17.7	2
0	22230	17.7	3
0	22231	17.7	2
0	22272	17.75	3
0	22273	17.75	2
0	22274	17.75	3
0	22275	17.75	2
0	22336	17.8	3
0	22337	17.8	2
0	22338	17.8	3
0	22339	17.8	2
0	22340	17.8	3
0	22341	17.8	2
0	22342	17.8	3
0	22343	17.8	2
0	22428	17.85	3
0	22429	17.85	2
0	22430	17.85	3
0	22431	17.85	2
0	22464	17.9	3
0	22465	17.9	2
0	22466	17.9	3
0	22467	17.9	2
0	22468	17.9	3
0	22469	17.9	2
0	22470	17.9	3
0	22471	17.9	2
0	22512	17.95	3
0	22513	17.95	2
0	22514	17.95	3
0	22515	17.95	2
0	22548	18	3
0	22549	18	2
0	22550	18	3
0	22551	18	2
0	22552	18	3
0	22553	18	2
0	22554	18	3
0	22555	18	2
0	22596	18.05	3
0	22597	18.05	2
0	22598	18.05	3
0	22599	18.05	2
0	22636	18.1	3
0	22637	18.1	2
0	22638	18.1	3
0	22639	18.1	2
0	22640	18.1	3
0	22641	18.1	2
0	22642	18.1	3
0	22643	18.1	2
0	22689	18.15	3
0	22690	18.15	2
0	22691	18.15	3
0	22692	18.15	2
0	22863	18.2	3
0	22864	18.2	2
0	22865	18.2	3
0	22866	18.2	2
0	22867	18.2	3
0	22868	18.2	2
0	22869	18.2	3
0	22870	18.2	2
0	22953	18.25	3
0	22954	18.25	2
0	22955	18.25	3
0	22956	18.25	2
0	22989	18.3	3
0	22990	18.3	2
0	22991	18.3	3
0	22992	18.3	2
0	22993	18.3	3
0	22994	18.3	2
0	22995	18.3	3
0	22996	18.3	2
0	23060	18.35	3
0	23061	18.35	2
0	23062	18.35	3
0	23063	18.35	2
0	23140	18.4	3
0	23141	18.4	2
0	23142	18.4	3
0	23143	18.4	2
0	23144	18.4	3
0	23145	18.4	2
0	23146	18.4	3
0	23147	18.4	2
0	23188	18.45	3
0	23189	18.45	2
0	23190	18.45	3
0	23191	18.45	2
0	23224	18.5	3
0	23225	18.5	2
0	23226	18.5	3
0	23227	18.5	2
0	23228	18.5	3
0	23229	18.5	2
0	23230	18.5	3
0	23231	18.5	2
0	23272	18.55	3
0	23273	18.55	2
0	23274	18.55	3
0	23275	18.55	2
0	23308	18.6	3
0	23309	18.6	2
0	23310	18.6	3
0	23311	18.6	2
0	23312	18.6	3
0	23313	18.6	2
0	23314	18.6	3
0	23315	18.6	2
0	23356	18.65	3
0	23357	18.65	2
0	23358	18.65	3
0	23359	18.65	2
0	23392	18.7	3
0	23393	18.7	2
0	23394	18.7	3
0	23395	18.7	2
0	23396	18.7	3
0	23397	18.7	2
0	23398	18.7	3
0	23399	18.7	2
0	23555	18.75	3
0	23556	18.75	2
0	23557	18.75	3
0	23558	18.75	2
0	23608	18.8	3
0	23609	18.8	2
0	23610	18.8	3
0	23611	18.8	2
0	23612	18.8	3
0	23613	18.8	2
0	23614	18.8	3
0	23615	18.8	2
0	23656	18.85	3
0	23657	18.85	2
0	23658	18.85	3
0	23659	18.85	2
0	23715	18.9	3
0	23716	18.9	2
0	23717	18.9	3
0	23718	18.9	2
0	23719	18.9	3
0	23720	18.9	2
0	23721	18.9	3
0	23722	18.9	2
0	23786	18.95	3
0	23787	18.95	2
0	23788	18.95	3
0	23789	18.95	2
0	23823	19	3
0	23824	19	2
0	23825	19	3
0	23826	19	2
0	23827	19	3
0	23828	19	2
0	23829	19	3
0	23830	19	2
0	23871	19.05	3
0	23872	19.05	2
0	23873	19.05	3
0	23874	19.05	2
0	23911	19.1	3
0	23912	19.1	2
0	23913	19.1	3
0	23914	19.1	2
0	23915	19.1	3
0	23916	19.1	2
0	23917	19.1	3
0	23918	19.1	2
0	23964	19.15	3
0	23965	19.15	2
0	23966	19.15	3
0	23967	19.15	2
0	24000	19.2	3
0	24001	19.2	2
0	24002	19.2	3
0	24003	19.2	2
0	24004	19.2	3
0	24005	19.2	2
0	24006	19.2	3
0	24007	19.2	2
0	24053	19.25	3
0	24054	19.25	2
0	24055	19.25	3
0	24056	19.25	2
0	24227	19.3	3
0	24228	19.3	2
0	24229	19.3	3
0	24230	19.3	2
0	24231	19.3	3
0	24232	19.3	2
0	24233	19.3	3
0	24234	19.3	2
0	24317	19.35	3
0	24318	19.35	2
0	24319	19.35	3
0	24320	19.35	2
0	24358	19.4	3
0	24359	19.4	2
0	24360	19.4	3
0	24361	19.4	2
0	24362	19.4	3
0	24363	19.4	2
0	24364	19.4	3
0	24365	19.4	2
0	24429	19.45	3
0	24430	19.45	2
0	24431	19.45	3
0	24432	19.45	2
0	24509	19.5	3
0	24510	19.5	2
0	24511	19.5	3
0	24512	19.5	2
0	24513	19.5	3
0	24514	19.5	2
0	24515	19.5	3
0	24516	19.5	2
0	24557	19.55	3
0	24558	19.55	2
0	24559	19.55	3
0	24560	19.55	2
0	24593	19.6	3
0	24594	19.6	2
0	24595	19.6	3
0	24596	19.6	2
0	24597	19.6	3
0	24598	19.6	2
0	24599	19.6	3
0	24600	19.6	2
0	24641	19.65	3
0	24642	19.65	2
0	24643	19.65	3
0	24644	19.65	2
0	24677	19.7	3
0	24678	19.7	2
0	24679	19.7	3
0	24680	19.7	2
0	24681	19.7	3
0	24682	19.7	2
0	24683	19.7	3
0	24684	19.7	2
0	24725	19.75	3
0	24726	19.75	2
0	24727	19.75	3
0	24728	19.75	2
0	24761	19.8	3
0	24762	19.8	2
0	24763	19.8	3
0	24764	19.8	2
0	24765	19.8	3
0	24766	19.8	2
0	24767	19.8	3
0	24768	19.8	2
0	24924	19.85	3
0	24925	19.85	2
0	24926	19.85	3
0	24927	19.85	2
0	24983	19.9	3
0	24984	19.9	2
0	24985	19.9	3
0	24986	19.9	2
0	24987	19.9	3
0	24988	19.9	2
0	24989	19.9	3
0	24990	19.9	2
0	25031	19.95	3
0	25032	19.95	2
0	25033	19.95	3
0	25034	19.95	2
0	25090	20	3
0	25091	20	2
0	25092	20	3
0	25093	20	2
0	25094	20	3
0	25095	20	2
0	25096	20	3
0	25097	20	2
0	25161	20.05	3
0	25162	20.05	2
0	25163	20.05	3
0	25164	20.05	2
0	25201	20.1	3
0	25202	20.1	2
0	25203	20.1	3
0	25204	20.1	2
0	25205	20.1	3
0	25206	20.1	2
0	25207	20.1	3
0	25208	20.1	2
0	25254	20.15	3
0	25255	20.15	2
0	25256	20.15	3
0	25257	20.15	2
0	25290	20.2	3
0	25291	20.2	2
0	25292	20.2	3
0	25293	20.2	2
0	25294	20.2	3
0	25295	20.2	2
0	25296	20.2	3
0	25297	20.2	2
0	25338	20.25	3
0	25339	20.25	2
0	25340	20.25	3
0	25341	20.25	2
0	25374	20.3	3
0	25375	20.3	2
0	25376	20.3	3
0	25377	20.3	2
0	25378	20.3	3
0	25379	20.3	2
0	25380	20.3	3
0	25381	20.3	2
0	25422	20.35	3
0	25423	20.35	2
0	25424	20.35	3
0	25425	20.35	2
0	25557	20.4	3
0	25558	20.4	2
0	25559	20.4	3
0	25560	20.4	2
0	25561	20.4	3
0	25562	20.4	2
0	25563	20.4	3
0	25564	20.4	2
0	25647	20.45	3
0	25648	20.45	2
0	25649	20.45	3
0	25650	20.45	2
0	25683	20.5	3
0	25684	20.5	2
0	25685	20.5	3
0	25686	20.5	2
0	25687	20.5	3
0	25688	20.5	2
0	25689	20.5	3
0	25690	20.5	2
0	25731	20.55	3
0	25732	20.55	2
0	25733	20.55	3
0	25734	20.55	2
0	25811	20.6	3
0	25812	20.6	2
0	25813	20.6	3
0	25814	20.6	2
0	25815	20.6	3
0	25816	20.6	2
0	25817	20.6	3
0	25818	20.6	2
0	25859	20.65	3
0	25860	20.65	2
0	25861	20.65	3
0	25862	20.65	2
0	25895	20.7	3
0	25896	20.7	2
0	25897	20.7	3
0	25898	20.7	2
0	25899	20.7	3
0	25900	20.7	2
0	25901	20.7	3
0	25902	20.7	2
0	25943	20.75	3
0	25944	20.75	2
0	25945	20.75	3
0	25946	20.75	2
0	25979	20.8	3
0	25980	20.8	2
0	25981	20.8	3
0	25982	20.8	2
0	25983	20.8	3
0	25984	20.8	2
0	25985	20.8	3
0	25986	20.8	2
0	26044	20.85	3
0	26045	20.85	2
0	26046	20.85	3
0	26047	20.85	2
0	26080	20.9	3
0	26081	20.9	2
0	26082	20.9	3
0	26083	20.9	2
0	26084	20.9	3
0	26085	20.9	2
0	26086	20.9	3
0	26087	20.9	2
0	26220	20.95	3
0	26221	20.95	2
0	26222	20.95	3
0	26223	20.95	2
0	26287	21	3
0	26288	21	2
0	26289	21	3
0	26290	21	2
0	26291	21	3
0	26292	21	2
0	26293	21	3
0	26294	21	2
0	26335	21.05	3
0	26336	21.05	2
0	26337	21.05	3
0	26338	21.05	2
0	26375	21.1	3
0	26376	21.1	2
0	26377	21.1	3
0	26378	21.1	2
0	26379	21.1	3
0	26380	21.1	2
0	26381	21.1	3
0	26382	21.1	2
0	26433	21.15	3
0	26434	21.15	2
0	26435	21.15	3
0	26436	21.15	2
0	26469	21.2	3
0	26470	21.2	2
0	26471	21.2	3
0	26472	21.2	2
0	26473	21.2	3
0	26474	21.2	2
0	26475	21.2	3
0	26476	21.2	2
0	26517	21.25	3
0	26518	21.25	2
0	26519	21.25	3
0	26520	21.25	2
0	26553	21.3	3
0	26554	21.3	2
0	26555	21.3	3
0	26556	21.3	2
0	26557	21.3	3
0	26558	21.3	2
0	26559	21.3	3
0	26560	21.3	2
0	26601	21.35	3
0	26602	21.35	2
0	26603	21.35	3
0	26604	21.35	2
0	26637	21.4	3
0	26638	21.4	2
0	26639	21.4	3
0	26640	21.4	2
0	26641	21.4	3
0	26642	21.4	2
0	26643	21.4	3
0	26644	21.4	2
0	26685	21.45	3
0	26686	21.45	2
0	26687	21.45	3
0	26688	21.45	2
0	26815	21.5	3
0	26816	21.5	2
0	26817	21.5	3
0	26818	21.5	2
0	26819	21.5	3
0	26820	21.5	2
0	26821	21.5	3
0	26822	21.5	2
0	26882	21.55	3
0	26883	21.55	2
0	26884	21.55	3
0	26885	21.55	2
0	26935	21.6	3
0	26936	21.6	2
0	26937	21.6	3
0	26938	21.6	2
0	26939	21.6	3
0	26940	21.6	2
0	26941	21.6	3
0	26942	21.6	2
0	26983	21.65	3
0	26984	21.65	2
0	26985	21.65	3
0	26986	21.65	2
0	27019	21.7	3
0	27020	21.7	2
0	27021	21.7	3
0	27022	21.7	2
0	27023	21.7	3
0	27024	21.7	2
0	27025	21.7	3
0	27026	21.7	2
0	27124	21.75	3
0	27125	21.75	2
0	27126	21.75	3
0	27127	21.75	2
0	27168	21.8	3
0	27169	21.8	2
0	27170	21.8	3
0	27171	21.8	2
0	27172	21.8	3
0	27173	21.8	2
0	27174	21.8	3
0	27175	21.8	2
0	27216	21.85	3
0	27217	21.85	2
0	27218	21.85	3
0	27219	21.85	2
0	27252	21.9	3
0	27253	21.9	2
0	27254	21.9	3
0	27255	21.9	2
0	27256	21.9	3
0	27257	21.9	2
0	27258	21.9	3
0	27259	21.9	2
0	27300	21.95	3
0	27301	21.95	2
0	27302	21.95	3
0	27303	21.95	2
0	27337	22	3
0	27338	22	2
0	27339	22	3
0	27340	22	2
0	27341	22	3
0	27342	22	2
0	27343	22	3
0	27344	22	2
0	27477	22.05	3
0	27478	22.05	2
0	27479	22.05	3
0	27480	22.05	2
0	27517	22.1	3
0	27518	22.1	2
0	27519	22.1	3
0	27520	22.1	2
0	27521	22.1	3
0	27522	22.1	2
0	27523	22.1	3
0	27524	22.1	2
0	27593	22.15	3
0	27594	22.15	2
0	27595	22.15	3
0	27596	22.15	2
0	27629	22.2	3
0	27630	22.2	2
0	27631	22.2	3
0	27632	22.2	2
0	27633	22.2	3
0	27634	22.2	2
0	27635	22.2	3
0	27636	22.2	2
0	27677	22.25	3
0	27678	22.25	2
0	27679	22.25	3
0	27680	22.25	2
0	27757	22.3	3
0	27758	22.3	2
0	27759	22.3	3
0	27760	22.3	2
0	27761	22.3	3
0	27762	22.3	2
0	27763	22.3	3
0	27764	22.3	2
0	27805	22.35	3
0	27806	22.35	2
0	27807	22.35	3
0	27808	22.35	2
0	27841	22.4	3
0	27842	22.4	2
0	27843	22.4	3
0	27844	22.4	2
0	27845	22.4	3
0	27846	22.4	2
0	27847	22.4	3
0	27848	22.4	2
0	27906	22.45	3
0	27907	22.45	2
0	27908	22.45	3
0	27909	22.45	2
0	27942	22.5	3
0	27943	22.5	2
0	27944	22.5	3
0	27945	22.5	2
0	27946	22.5	3
0	27947	22.5	2
0	27948	22.5	3
0	27949	22.5	2
0	27990	22.55	3
0	27991	22.55	2
0	27992	22.55	3
0	27993	22.55	2
0	28166	22.6	3
0	28167	22.6	2
0	28168	22.6	3
0	28169	22.6	2
0	28170	22.6	3
0	28171	22.6	2
0	28172	22.6	3
0	28173	22.6	2
0	28233	22.65	3
0	28234	22.65	2
0	28235	22.65	3
0	28236	22.65	2
0	28286	22.7	3
0	28287	22.7	2
0	28288	22.7	3
0	28289	22.7	2
0	28290	22.7	3
0	28291	22.7	2
0	28292	22.7	3
0	28293	22.7	2
0	28391	22.75	3
0	28392	22.75	2
0	28393	22.75	3
0	28394	22.75	2
0	28435	22.8	3
0	28436	22.8	2
0	28437	22.8	3
0	28438	22.8	2
0	28439	22.8	3
0	28440	22.8	2
0	28441	22.8	3
0	28442	22.8	2
0	28506	22.85	3
0	28507	22.85	2
0	28508	22.85	3
0	28509	22.85	2
0	28542	22.9	3
0	28543	22.9	2
0	28544	22.9	3
0	28545	22.9	2
0	28546	22.9	3
0	28547	22.9	2
0	28548	22.9	3
0	28549	22.9	2
0	28590	22.95	3
0	28591	22.95	2
0	28592	22.95	3
0	28593	22.95	2
0	28652	23	3
0	28653	23	2
0	28654	23	3
0	28655	23	2
0	28656	23	3
0	28657	23	2
0	28658	23	3
0	28659	23	2
0	28700	23.05	3
0	28701	23.05	2
0	28702	23.05	3
0	28703	23.05	2
0	28740	23.1	3
0	28741	23.1	2
0	28742	23.1	3
0	28743	23.1	2
0	28744	23.1	3
0	28745	23.1	2
0	28746	23.1	3
0	28747	23.1	2
0	28909	23.15	3
0	28910	23.15	2
0	28911	23.15	3
0	28912	23.15	2
0	28964	23.2	3
0	28965	23.2	2
0	28966	23.2	3
0	28967	23.2	2
0	28968	23.2	3
0	28969	23.2	2
0	28970	23.2	3
0	28971	23.2	2
0	29035	23.25	3
0	29036	23.25	2
0	29037	23.25	3
0	29038	23.25	2
0	29115	23.3	3
0	29116	23.3	2
0	29117	23.3	3
0	29118	23.3	2
0	29119	23.3	3
0	29120	23.3	2
0	29121	23.3	3
0	29122	23.3	2
0	29163	23.35	3
0	29164	23.35	2
0	29165	23.35	3
0	29166	23.35	2
0	29243	23.4	3
0	29244	23.4	2
0	29245	23.4	3
0	29246	23.4	2
0	29247	23.4	3
0	29248	23.4	2
0	29249	23.4	3
0	29250	23.4	2
0	29291	23.45	3
0	29292	23.45	2
0	29293	23.45	3
0	29294	23.45	2
0	29327	23.5	3
0	29328	23.5	2
0	29329	23.5	3
0	29330	23.5	2
0	29331	23.5	3
0	29332	23.5	2
0	29333	23.5	3
0	29334	23.5	2
0	29375	23.55	3
0	29376	23.55	2
0	29377	23.55	3
0	29378	23.55	2
0	29411	23.6	3
0	29412	23.6	2
0	29413	23.6	3
0	29414	23.6	2
0	29415	23.6	3
0	29416	23.6	2
0	29417	23.6	3
0	29418	23.6	2
0	29459	23.65	3
0	29460	23.65	2
0	29461	23.65	3
0	29462	23.65	2
0	29610	23.7	3
0	29611	23.7	2
0	29612	23.7	3
0	29613	23.7	2
0	29614	23.7	3
0	29615	23.7	2
0	29616	23.7	3
0	29617	23.7	2
0	29658	23.75	3
0	29659	23.75	2
0	29660	23.75	3
0	29661	23.75	2
0	29717	23.8	3
0	29718	23.8	2
0	29719	23.8	3
0	29720	23.8	2
0	29721	23.8	3
0	29722	23.8	2
0	29723	23.8	3
0	29724	23.8	2
0	29788	23.85	3
0	29789	23.85	2
0	29790	23.85	3
0	29791	23.85	2
0	29824	23.9	3
0	29825	23.9	2
0	29826	23.9	3
0	29827	23.9	2
0	29828	23.9	3
0	29829	23.9	2
0	29830	23.9	3
0	29831	23.9	2
0	29889	23.95	3
0	29890	23.95	2
0	29891	23.95	3
0	29892	23.95	2
0	29926	24	3
0	29927	24	2
0	29928	24	3
0	29929	24	2
0	29930	24	3
0	29931	24	2
0	29932	24	3
0	29933	24	2
0	29974	24.05	3
0	29975	24.05	2
0	29976	24.05	3
0	29977	24.05	2
0	30014	24.1	3
0	30015	24.1	2
0	30016	24.1	3
0	30017	24.1	2
0	30018	24.1	3
0	30019	24.1	2
0	30020	24.1	3
0	30021	24.1	2
0	30067	24.15	3
0	30068	24.15	2
0	30069	24.15	3
0	30070	24.15	2
0	30103	24.2	3
0	30104	24.2	2
0	30105	24.2	3
0	30106	24.2	2
0	30107	24.2	3
0	30108	24.2	2
0	30109	24.2	3
0	30110	24.2	2
0	30268	24.25	3
0	30269	24.25	2
0	30270	24.25	3
0	30271	24.25	2
0	30323	24.3	3
0	30324	24.3	2
0	30325	24.3	3
0	30326	24.3	2
0	30327	24.3	3
0	30328	24.3	2
0	30329	24.3	3
0	30330	24.3	2
0	30394	24.35	3
0	30395	24.35	2
0	30396	24.35	3
0	30397	24.35	2
0	30474	24.4	3
0	30475	24.4	2
0	30476	24.4	3
0	30477	24.4	2
0	30478	24.4	3
0	30479	24.4	2
0	30480	24.4	3
0	30481	24.4	2
0	30522	24.45	3
0	30523	24.45	2
0	30524	24.45	3
0	30525	24.45	2
0	30597	24.5	3
0	30598	24.5	2
0	30599	24.5	3
0	30600	24.5	2
0	30601	24.5	3
0	30602	24.5	2
0	30603	24.5	3
0	30604	24.5	2
0	30645	24.55	3
0	30646	24.55	2
0	30647	24.55	3
0	30648	24.55	2
0	30698	24.6	3
0	30699	24.6	2
0	30700	24.6	3
0	30701	24.6	2
0	30702	24.6	3
0	30703	24.6	2
0	30704	24.6	3
0	30705	24.6	2
0	30746	24.65	3
0	30747	24.65	2
0	30748	24.65	3
0	30749	24.65	2
0	30782	24.7	3
0	30783	24.7	2
0	30784	24.7	3
0	30785	24.7	2
0	30786	24.7	3
0	30787	24.7	2
0	30788	24.7	3
0	30789	24.7	2
0	30835	24.75	3
0	30836	24.75	2
0	30837	24.75	3
0	30838	24.75	2
0	30968	24.8	3
0	30969	24.8	2
0	30970	24.8	3
0	30971	24.8	2
0	30972	24.8	3
0	30973	24.8	2
0	30974	24.8	3
0	30975	24.8	2
0	31016	24.85	3
0	31017	24.85	2
0	31018	24.85	3
0	31019	24.85	2
0	31057	24.9	3
0	31058	24.9	2
0	31059	24.9	3
0	31060	24.9	2
0	31061	24.9	3
0	31062	24.9	2
0	31063	24.9	3
0	31064	24.9	2
0	31105	24.95	3
0	31106	24.95	2
0	31107	24.95	3
0	31108	24.95	2
0	31144	25	3
0	31145	25	2
0	31146	25	3
0	31147	25	2
0	31148	25	3
0	31149	25	2
0	31150	25	3
0	31151	25	2
0	31192	25.05	3
0	31193	25.05	2
0	31194	25.05	3
0	31195	25.05	2
0	31232	25.1	3
0	31233	25.1	2
0	31234	25.1	3
0	31235	25.1	2
0	31236	25.1	3
0	31237	25.1	2
0	31238	25.1	3
0	31239	25.1	2
0	31285	25.15	3
0	31286	25.15	2
0	31287	25.15	3
0	31288	25.15	2
0	31321	25.2	3
0	31322	25.2	2
0	31323	25.2	3
0	31324	25.2	2
0	31325	25.2	3
0	31326	25.2	2
0	31327	25.2	3
0	31328	25.2	2
0	31369	25.25	3
0	31370	25.25	2
0	31371	25.25	3
0	31372	25.25	2
0	31405	25.3	3
0	31406	25.3	2
0	31407	25.3	3
0	31408	25.3	2
0	31409	25.3	3
0	31410	25.3	2
0	31411	25.3	3
0	31412	25.3	2
0	31547	25.35	3
0	31548	25.35	2
0	31549	25.35	3
0	31550	25.35	2
0	31602	25.4	3
0	31603	25.4	2
0	31604	25.4	3
0	31605	25.4	2
0	31606	25.4	3
0	31607	25.4	2
0	31608	25.4	3
0	31609	25.4	2
0	31650	25.45	3
0	31651	25.45	2
0	31652	25.45	3
0	31653	25.45	2
0	31686	25.5	3
0	31687	25.5	2
0	31688	25.5	3
0	31689	25.5	2
0	31690	25.5	3
0	31691	25.5	2
0	31692	25.5	3
0	31693	25.5	2
0	31734	25.55	3
0	31735	25.55	2
0	31736	25.55	3
0	31737	25.55	2
0	31770	25.6	3
0	31771	25.6	2
0	31772	25.6	3
0	31773	25.6	2
0	31774	25.6	3
0	31775	25.6	2
0	31776	25.6	3
0	31777	25.6	2
0	31818	25.65	3
0	31819	25.65	2
0	31820	25.65	3
0	31821	25.65	2
0	31854	25.7	3
0	31855	25.7	2
0	31856	25.7	3
0	31857	25.7	2
0	31858	25.7	3
0	31859	25.7	2
0	31860	25.7	3
0	31861	25.7	2
0	31902	25.75	3
0	31903	25.75	2
0	31904	25.75	3
0	31905	25.75	2
0	31938	25.8	3
0	31939	25.8	2
0	31940	25.8	3
0	31941	25.8	2
0	31942	25.8	3
0	31943	25.8	2
0	31944	25.8	3
0	31945	25.8	2
0	31986	25.85	3
0	31987	25.85	2
0	31988	25.85	3
0	31989	25.85	2
0	32114	25.9	3
0	32115	25.9	2
0	32116	25.9	3
0	32117	25.9	2
0	32118	25.9	3
0	32119	25.9	2
0	32120	25.9	3
0	32121	25.9	2
0	32162	25.95	3
0	32163	25.95	2
0	32164	25.95	3
0	32165	25.95	2
0	32243	26	3
0	32244	26	2
0	32245	26	3
0	32246	26	2
0	32247	26	3
0	32248	26	2
0	32249	26	3
0	32250	26	2
0	32291	26.05	3
0	32292	26.05	2
0	32293	26.05	3
0	32294	26.05	2
0	32388	26.1	3
0	32389	26.1	2
0	32390	26.1	3
0	32391	26.1	2
0	32392	26.1	3
0	32393	26.1	2
0	32394	26.1	3
0	32395	26.1	2
0	32472	26.15	3
0	32473	26.15	2
0	32474	26.15	3
0	32475	26.15	2
0	32513	26.2	3
0	32514	26.2	2
0	32515	26.2	3
0	32516	26.2	2
0	32517	26.2	3
0	32518	26.2	2
0	32519	26.2	3
0	32520	26.2	2
0	32584	26.25	3
0	32585	26.25	2
0	32586	26.25	3
0	32587	26.25	2
0	32620	26.3	3
0	32621	26.3	2
0	32622	26.3	3
0	32623	26.3	2
0	32624	26.3	3
0	32625	26.3	2
0	32626	26.3	3
0	32627	26.3	2
0	32685	26.35	3
0	32686	26.35	2
0	32687	26.35	3
0	32688	26.35	2
0	32721	26.4	3
0	32722	26.4	2
0	32723	26.4	3
0	32724	26.4	2
0	32725	26.4	3
0	32726	26.4	2
0	32727	26.4	3
0	32728	26.4	2
0	32863	26.45	3
0	32864	26.45	2
0	32865	26.45	3
0	32866	26.45	2
0	32918	26.5	3
0	32919	26.5	2
0	32920	26.5	3
0	32921	26.5	2
0	32922	26.5	3
0	32923	26.5	2
0	32924	26.5	3
0	32925	26.5	2
0	33010	26.55	3
0	33011	26.55	2
0	33012	26.55	3
0	33013	26.55	2
0	33046	26.6	3
0	33047	26.6	2
0	33048	26.6	3
0	33049	26.6	2
0	33050	26.6	3
0	33051	26.6	2
0	33052	26.6	3
0	33053	26.6	2
0	33138	26.65	3
0	33139	26.65	2
0	33140	26.65	3
0	33141	26.65	2
0	33197	26.7	3
0	33198	26.7	2
0	33199	26.7	3
0	33200	26.7	2
0	33201	26.7	3
0	33202	26.7	2
0	33203	26.7	3
0	33204	26.7	2
0	33250	26.75	3
0	33251	26.75	2
0	33252	26.75	3
0	33253	26.75	2
0	33309	26.8	3
0	33310	26.8	2
0	33311	26.8	3
0	33312	26.8	2
0	33313	26.8	3
0	33314	26.8	2
0	33315	26.8	3
0	33316	26.8	2
0	33357	26.85	3
0	33358	26.85	2
0	33359	26.85	3
0	33360	26.85	2
0	33393	26.9	3
0	33394	26.9	2
0	33395	26.9	3
0	33396	26.9	2
0	33397	26.9	3
0	33398	26.9	2
0	33399	26.9	3
0	33400	26.9	2
0	33441	26.95	3
0	33442	26.95	2
0	33443	26.95	3
0	33444	26.95	2
0	33572	27	3
0	33573	27	2
0	33574	27	3
0	33575	27	2
0	33576	27	3
0	33577	27	2
0	33578	27	3
0	33579	27	2
0	33620	27.05	3
0	33621	27.05	2
0	33622	27.05	3
0	33623	27.05	2
0	33683	27.1	3
0	33684	27.1	2
0	33685	27.1	3
0	33686	27.1	2
0	33687	27.1	3
0	33688	27.1	2
0	33689	27.1	3
0	33690	27.1	2
0	33736	27.15	3
0	33737	27.15	2
0	33738	27.15	3
0	33739	27.15	2
0	33816	27.2	3
0	33817	27.2	2
0	33818	27.2	3
0	33819	27.2	2
0	33820	27.2	3
0	33821	27.2	2
0	33822	27.2	3
0	33823	27.2	2
0	33887	27.25	3
0	33888	27.25	2
0	33889	27.25	3
0	33890	27.25	2
0	33923	27.3	3
0	33924	27.3	2
0	33925	27.3	3
0	33926	27.3	2
0	33927	27.3	3
0	33928	27.3	2
0	33929	27.3	3
0	33930	27.3	2
0	33994	27.35	3
0	33995	27.35	2
0	33996	27.35	3
0	33997	27.35	2
0	34030	27.4	3
0	34031	27.4	2
0	34032	27.4	3
0	34033	27.4	2
0	34034	27.4	3
0	34035	27.4	2
0	34036	27.4	3
0	34037	27.4	2
0	34078	27.45	3
0	34079	27.45	2
0	34080	27.45	3
0	34081	27.45	2
0	34114	27.5	3
0	34115	27.5	2
0	34116	27.5	3
0	34117	27.5	2
0	34118	27.5	3
0	34119	27.5	2
0	34120	27.5	3
0	34121	27.5	2
0	34256	27.55	3
0	34257	27.55	2
0	34258	27.55	3
0	34259	27.55	2
0	34311	27.6	3
0	34312	27.6	2
0	34313	27.6	3
0	34314	27.6	2
0	34315	27.6	3
0	34316	27.6	2
0	34317	27.6	3
0	34318	27.6	2
0	34403	27.65	3
0	34404	27.65	2
0	34405	27.65	3
0	34406	27.65	2
0	34439	27.7	3
0	34440	27.7	2
0	34441	27.7	3
0	34442	27.7	2
0	34443	27.7	3
0	34444	27.7	2
0	34445	27.7	3
0	34446	27.7	2
0	34510	27.75	3
0	34511	27.75	2
0	34512	27.75	3
0	34513	27.75	2
0	34569	27.8	3
0	34570	27.8	2
0	34571	27.8	3
0	34572	27.8	2
0	34573	27.8	3
0	34574	27.8	2
0	34575	27.8	3
0	34576	27.8	2
0	34617	27.85	3
0	34618	27.85	2
0	34619	27.85	3
0	34620	27.85	2
0	34676	27.9	3
0	34677	27.9	2
0	34678	27.9	3
0	34679	27.9	2
0	34680	27.9	3
0	34681	27.9	2
0	34682	27.9	3
0	34683	27.9	2
0	34729	27.95	3
0	34730	27.95	2
0	34731	27.95	3
0	34732	27.95	2
0	34766	28	3
0	34767	28	2
0	34768	28	3
0	34769	28	2
0	34770	28	3
0	34771	28	2
0	34772	28	3
0	34773	28	2
0	34814	28.05	3
0	34815	28.05	2
0	34816	28.05	3
0	34817	28.05	2
0	34946	28.1	3
0	34947	28.1	2
0	34948	28.1	3
0	34949	28.1	2
0	34950	28.1	3
0	34951	28.1	2
0	34952	28.1	3
0	34953	28.1	2
0	34999	28.15	3
0	35000	28.15	2
0	35001	28.15	3
0	35002	28.15	2
0	35079	28.2	3
0	35080	28.2	2
0	35081	28.2	3
0	35082	28.2	2
0	35083	28.2	3
0	35084	28.2	2
0	35085	28.2	3
0	35086	28.2	2
0	35127	28.25	3
0	35128	28.25	2
0	35129	28.25	3
0	35130	28.25	2
0	35207	28.3	3
0	35208	28.3	2
0	35209	28.3	3
0	35210	28.3	2
0	35211	28.3	3
0	35212	28.3	2
0	35213	28.3	3
0	35214	28.3	2
0	35283	28.35	3
0	35284	28.35	2
0	35285	28.35	3
0	35286	28.35	2
0	35319	28.4	3
0	35320	28.4	2
0	35321	28.4	3
0	35322	28.4	2
0	35323	28.4	3
0	35324	28.4	2
0	35325	28.4	3
0	35326	28.4	2
0	35390	28.45	3
0	35391	28.45	2
0	35392	28.45	3
0	35393	28.45	2
0	35426	28.5	3
0	35427	28.5	2
0	35428	28.5	3
0	35429	28.5	2
0	35430	28.5	3
0	35431	28.5	2
0	35432	28.5	3
0	35433	28.5	2
0	35474	28.55	3
0	35475	28.55	2
0	35476	28.55	3
0	35477	28.55	2
0	35510	28.6	3
0	35511	28.6	2
0	35512	28.6	3
0	35513	28.6	2
0	35514	28.6	3
0	35515	28.6	2
0	35516	28.6	3
0	35517	28.6	2
0	35652	28.65	3
0	35653	28.65	2
0	35654	28.65	3
0	35655	28.65	2
0	35707	28.7	3
0	35708	28.7	2
0	35709	28.7	3
0	35710	28.7	2
0	35711	28.7	3
0	35712	28.7	2
0	35713	28.7	3
0	35714	28.7	2
0	35772	28.75	3
0	35773	28.75	2
0	35774	28.75	3
0	35775	28.75	2
0	35808	28.8	3
0	35809	28.8	2
0	35810	28.8	3
0	35811	28.8	2
0	35812	28.8	3
0	35813	28.8	2
0	35814	28.8	3
0	35815	28.8	2
0	35873	28.85	3
0	35874	28.85	2
0	35875	28.85	3
0	35876	28.85	2
0	35932	28.9	3
0	35933	28.9	2
0	35934	28.9	3
0	35935	28.9	2
0	35936	28.9	3
0	35937	28.9	2
0	35938	28.9	3
0	35939	28.9	2
0	35980	28.95	3
0	35981	28.95	2
0	35982	28.95	3
0	35983	28.95	2
0	36042	29	3
0	36043	29	2
0	36044	29	3
0	36045	29	2
0	36046	29	3
0	36047	29	2
0	36048	29	3
0	36049	29	2
0	36090	29.05	3
0	36091	29.05	2
0	36092	29.05	3
0	36093	29.05	2
0	36130	29.1	3
0	36131	29.1	2
0	36132	29.1	3
0	36133	29.1	2
0	36134	29.1	3
0	36135	29.1	2
0	36136	29.1	3
0	36137	29.1	2
0	36183	29.15	3
0	36184	29.15	2
0	36185	29.15	3
0	36186	29.15	2
0	36313	29.2	3
0	36314	29.2	2
0	36315	29.2	3
0	36316	29.2	2
0	36317	29.2	3
0	36318	29.2	2
0	36319	29.2	3
0	36320	29.2	2
0	36380	29.25	3
0	36381	29.25	2
0	36382	29.25	3
0	36383	29.25	2
0	36460	29.3	3
0	36461	29.3	2
0	36462	29.3	3
0	36463	29.3	2
0	36464	29.3	3
0	36465	29.3	2
0	36466	29.3	3
0	36467	29.3	2
0	36508	29.35	3
0	36509	29.35	2
0	36510	29.35	3
0	36511	29.35	2
0	36588	29.4	3
0	36589	29.4	2
0	36590	29.4	3
0	36591	29.4	2
0	36592	29.4	3
0	36593	29.4	2
0	36594	29.4	3
0	36595	29.4	2
0	36659	29.45	3
0	36660	29.45	2
0	36661	29.45	3
0	36662	29.45	2
0	36695	29.5	3
0	36696	29.5	2
0	36697	29.5	3
0	36698	29.5	2
0	36699	29.5	3
0	36700	29.5	2
0	36701	29.5	3
0	36702	29.5	2
0	36771	29.55	3
0	36772	29.55	2
0	36773	29.55	3
0	36774	29.55	2
0	36807	29.6	3
0	36808	29.6	2
0	36809	29.6	3
0	36810	29.6	2
0	36811	29.6	3
0	36812	29.6	2
0	36813	29.6	3
0	36814	29.6	2
0	36855	29.65	3
0	36856	29.65	2
0	36857	29.65	3
0	36858	29.65	2
0	36891	29.7	3
0	36892	29.7	2
0	36893	29.7	3
0	36894	29.7	2
0	36895	29.7	3
0	36896	29.7	2
0	36897	29.7	3
0	36898	29.7	2
0	37031	29.75	3
0	37032	29.75	2
0	37033	29.75	3
0	37034	29.75	2
0	37067	29.8	3
0	37068	29.8	2
0	37069	29.8	3
0	37070	29.8	2
0	37071	29.8	3
0	37072	29.8	2
0	37073	29.8	3
0	37074	29.8	2
0	37138	29.85	3
0	37139	29.85	2
0	37140	29.85	3
0	37141	29.85	2
0	37174	29.9	3
0	37175	29.9	2
0	37176	29.9	3
0	37177	29.9	2
0	37178	29.9	3
0	37179	29.9	2
0	37180	29.9	3
0	37181	29.9	2
0	37250	29.95	3
0	37251	29.95	2
0	37252	29.95	3
0	37253	29.95	2
0	37292	30	3
0	37293	30	2
0	37294	30	3
0	37295	30	2
0	37296	30	3
0	37297	30	2
0	37298	30	3
0	37299	30	2
0	37340	30.05	3
0	37341	30.05	2
0	37342	30.05	3
0	37343	30.05	2
0	37403	30.1	3
0	37404	30.1	2
0	37405	30.1	3
0	37406	30.1	2
0	37407	30.1	3
0	37408	30.1	2
0	37409	30.1	3
0	37410	30.1	2
0	37456	30.15	3
0	37457	30.15	2
0	37458	30.15	3
0	37459	30.15	2
0	37492	30.2	3
0	37493	30.2	2
0	37494	30.2	3
0	37495	30.2	2
0	37496	30.2	3
0	37497	30.2	2
0	37498	30.2	3
0	37499	30.2	2
0	37540	30.25	3
0	37541	30.25	2
0	37542	30.25	3
0	37543	30.25	2
0	37670	30.3	3
0	37671	30.3	2
0	37672	30.3	3
0	37673	30.3	2
0	37674	30.3	3
0	37675	30.3	2
0	37676	30.3	3
0	37677	30.3	2
0	37737	30.35	3
0	37738	30.35	2
0	37739	30.35	3
0	37740	30.35	2
0	37773	30.4	3
0	37774	30.4	2
0	37775	30.4	3
0	37776	30.4	2
0	37777	30.4	3
0	37778	30.4	2
0	37779	30.4	3
0	37780	30.4	2
0	37821	30.45	3
0	37822	30.45	2
0	37823	30.45	3
0	37824	30.45	2
0	37901	30.5	3
0	37902	30.5	2
0	37903	30.5	3
0	37904	30.5	2
0	37905	30.5	3
0	37906	30.5	2
0	37907	30.5	3
0	37908	30.5	2
0	37949	30.55	3
0	37950	30.55	2
0	37951	30.55	3
0	37952	30.55	2
0	37985	30.6	3
0	37986	30.6	2
0	37987	30.6	3
0	37988	30.6	2
0	37989	30.6	3
0	37990	30.6	2
0	37991	30.6	3
0	37992	30.6	2
0	38050	30.65	3
0	38051	30.65	2
0	38052	30.65	3
0	38053	30.65	2
0	38086	30.7	3
0	38087	30.7	2
0	38088	30.7	3
0	38089	30.7	2
0	38090	30.7	3
0	38091	30.7	2
0	38092	30.7	3
0	38093	30.7	2
0	38134	30.75	3
0	38135	30.75	2
0	38136	30.75	3
0	38137	30.75	2
0	38170	30.8	3
0	38171	30.8	2
0	38172	30.8	3
0	38173	30.8	2
0	38174	30.8	3
0	38175	30.8	2
0	38176	30.8	3
0	38177	30.8	2
0	38310	30.85	3
0	38311	30.85	2
0	38312	30.85	3
0	38313	30.85	2
0	38346	30.9	3
0	38347	30.9	2
0	38348	30.9	3
0	38349	30.9	2
0	38350	30.9	3
0	38351	30.9	2
0	38352	30.9	3
0	38353	30.9	2
0	38394	30.95	3
0	38395	30.95	2
0	38396	30.95	3
0	38397	30.95	2
0	38433	31	3
0	38434	31	2
0	38435	31	3
0	38436	31	2
0	38437	31	3
0	38438	31	2
0	38439	31	3
0	38440	31	2
0	38504	31.05	3
0	38505	31.05	2
0	38506	31.05	3
0	38507	31.05	2
0	38544	31.1	3
0	38545	31.1	2
0	38546	31.1	3
0	38547	31.1	2
0	38548	31.1	3
0	38549	31.1	2
0	38550	31.1	3
0	38551	31.1	2
0	38602	31.15	3
0	38603	31.15	2
0	38604	31.15	3
0	38605	31.15	2
0	38661	31.2	3
0	38662	31.2	2
0	38663	31.2	3
0	38664	31.2	2
0	38665	31.2	3
0	38666	31.2	2
0	38667	31.2	3
0	38668	31.2	2
0	38709	31.25	3
0	38710	31.25	2
0	38711	31.25	3
0	38712	31.25	2
0	38745	31.3	3
0	38746	31.3	2
0	38747	31.3	3
0	38748	31.3	2
0	38749	31.3	3
0	38750	31.3	2
0	38751	31.3	3
0	38752	31.3	2
0	38793	31.35	3
0	38794	31.35	2
0	38795	31.35	3
0	38796	31.35	2
0	38923	31.4	3
0	38924	31.4	2
0	38925	31.4	3
0	38926	31.4	2
0	38927	31.4	3
0	38928	31.4	2
0	38929	31.4	3
0	38930	31.4	2
0	39039	31.45	3
0	39040	31.45	2
0	39041	31.45	3
0	39042	31.45	2
0	39075	31.5	3
0	39076	31.5	2
0	39077	31.5	3
0	39078	31.5	2
0	39079	31.5	3
0	39080	31.5	2
0	39081	31.5	3
0	39082	31.5	2
0	39128	31.55	3
0	39129	31.55	2
0	39130	31.55	3
0	39131	31.55	2
0	39231	31.6	3
0	39232	31.6	2
0	39233	31.6	3
0	39234	31.6	2
0	39235	31.6	3
0	39236	31.6	2
0	39237	31.6	3
0	39238	31.6	2
0	39279	31.65	3
0	39280	31.65	2
0	39281	31.65	3
0	39282	31.65	2
0	39315	31.7	3
0	39316	31.7	2
0	39317	31.7	3
0	39318	31.7	2
0	39319	31.7	3
0	39320	31.7	2
0	39321	31.7	3
0	39322	31.7	2
0	39368	31.75	3
0	39369	31.75	2
0	39370	31.75	3
0	39371	31.75	2
0	39404	31.8	3
0	39405	31.8	2
0	39406	31.8	3
0	39407	31.8	2
0	39408	31.8	3
0	39409	31.8	2
0	39410	31.8	3
0	39411	31.8	2
0	39452	31.85	3
0	39453	31.85	2
0	39454	31.85	3
0	39455	31.85	2
0	39488	31.9	3
0	39489	31.9	2
0	39490	31.9	3
0	39491	31.9	2
0	39492	31.9	3
0	39493	31.9	2
0	39494	31.9	3
0	39495	31.9	2
0	39628	31.95	3
0	39629	31.95	2
0	39630	31.95	3
0	39631	31.95	2
0	39709	32	3
0	39710	32	2
0	39711	32	3
0	39712	32	2
0	39713	32	3
0	39714	32	2
0	39715	32	3
0	39716	32	2
0	39757	32.05	3
0	39758	32.05	2
0	39759	32.05	3
0	39760	32.05	2
0	39797	32.1	3
0	39798	32.1	2
0	39799	32.1	3
0	39800	32.1	2
0	39801	32.1	3
0	39802	32.1	2
0	39803	32.1	3
0	39804	32.1	2
0	39873	32.15	3
0	39874	32.15	2
0	39875	32.15	3
0	39876	32.15	2
0	39909	32.2	3
0	39910	32.2	2
0	39911	32.2	3
0	39912	32.2	2
0	39913	32.2	3
0	39914	32.2	2
0	39915	32.2	3
0	39916	32.2	2
0	39957	32.25	3
0	39958	32.25	2
0	39959	32.25	3
0	39960	32.25	2
0	39993	32.3	3
0	39994	32.3	2
0	39995	32.3	3
0	39996	32.3	2
0	39997	32.3	3
0	39998	32.3	2
0	39999	32.3	3
0	40000	32.3	2
0	40041	32.35	3
0	40042	32.35	2
0	40043	32.35	3
0	40044	32.35	2
0	40077	32.4	3
0	40078	32.4	2
0	40079	32.4	3
0	40080	32.4	2
0	40081	32.4	3
0	40082	32.4	2
0	40083	32.4	3
0	40084	32.4	2
0	40125	32.45	3
0	40126	32.45	2
0	40127	32.45	3
0	40128	32.45	2
0	40255	32.5	3
0	40256	32.5	2
0	40257	32.5	3
0	40258	32.5	2
0	40259	32.5	3
0	40260	32.5	2
0	40261	32.5	3
0	40262	32.5	2
0	40339	32.55	3
0	40340	32.55	2
0	40341	32.55	3
0	40342	32.55	2
0	40375	32.6	3
0	40376	32.6	2
0	40377	32.6	3
0	40378	32.6	2
0	40379	32.6	3
0	40380	32.6	2
0	40381	32.6	3
0	40382	32.6	2
0	40423	32.65	3
0	40424	32.65	2
0	40425	32.65	3
0	40426	32.65	2
0	40482	32.7	3
0	40483	32.7	2
0	40484	32.7	3
0	40485	32.7	2
0	40486	32.7	3
0	40487	32.7	2
0	40488	32.7	3
0	40489	32.7	2
0	40535	32.75	3
0	40536	32.75	2
0	40537	32.75	3
0	40538	32.75	2
0	40571	32.8	3
0	40572	32.8	2
0	40573	32.8	3
0	40574	32.8	2
0	40575	32.8	3
0	40576	32.8	2
0	40577	32.8	3
0	40578	32.8	2
0	40619	32.85	3
0	40620	32.85	2
0	40621	32.85	3
0	40622	32.85	2
0	40655	32.9	3
0	40656	32.9	2
0	40657	32.9	3
0	40658	32.9	2
0	40659	32.9	3
0	40660	32.9	2
0	40661	32.9	3
0	40662	32.9	2
0	40703	32.95	3
0	40704	32.95	2
0	40705	32.95	3
0	40706	32.95	2
0	40742	33	3
0	40743	33	2
0	40744	33	3
0	40745	33	2
0	40746	33	3
0	40747	33	2
0	40748	33	3
0	40749	33	2
0	40882	33.05	3
0	40883	33.05	2
0	40884	33.05	3
0	40885	33.05	2
0	40966	33.1	3
0	40967	33.1	2
0	40968	33.1	3
0	40969	33.1	2
0	40970	33.1	3
0	40971	33.1	2
0	40972	33.1	3
0	40973	33.1	2
0	41024	33.15	3
0	41025	33.15	2
0	41026	33.15	3
0	41027	33.15	2
0	41101	33.2	3
0	41102	33.2	2
0	41103	33.2	3
0	41104	33.2	2
0	41105	33.2	3
0	41106	33.2	2
0	41107	33.2	3
0	41108	33.2	2
0	41180	33.25	3
0	41181	33.25	2
0	41182	33.25	3
0	41183	33.25	2
0	41216	33.3	3
0	41217	33.3	2
0	41218	33.3	3
0	41219	33.3	2
0	41220	33.3	3
0	41221	33.3	2
0	41222	33.3	3
0	41223	33.3	2
0	41287	33.35	3
0	41288	33.35	2
0	41289	33.35	3
0	41290	33.35	2
0	41323	33.4	3
0	41324	33.4	2
0	41325	33.4	3
0	41326	33.4	2
0	41327	33.4	3
0	41328	33.4	2
0	41329	33.4	3
0	41330	33.4	2
0	41371	33.45	3
0	41372	33.45	2
0	41373	33.45	3
0	41374	33.45	2
0	41407	33.5	3
0	41408	33.5	2
0	41409	33.5	3
0	41410	33.5	2
0	41411	33.5	3
0	41412	33.5	2
0	41413	33.5	3
0	41414	33.5	2
0	41455	33.55	3
0	41456	33.55	2
0	41457	33.55	3
0	41458	33.55	2
0	41585	33.6	3
0	41586	33.6	2
0	41587	33.6	3
0	41588	33.6	2
0	41589	33.6	3
0	41590	33.6	2
0	41591	33.6	3
0	41592	33.6	2
0	41696	33.65	3
0	41697	33.65	2
0	41698	33.65	3
0	41699	33.65	2
0	41732	33.7	3
0	41733	33.7	2
0	41734	33.7	3
0	41735	33.7	2
0	41736	33.7	3
0	41737	33.7	2
0	41738	33.7	3
0	41739	33.7	2
0	41824	33.75	3
0	41825	33.75	2
0	41826	33.75	3
0	41827	33.75	2
0	41883	33.8	3
0	41884	33.8	2
0	41885	33.8	3
0	41886	33.8	2
0	41887	33.8	3
0	41888	33.8	2
0	41889	33.8	3
0	41890	33.8	2
0	41931	33.85	3
0	41932	33.85	2
0	41933	33.85	3
0	41934	33.85	2
0	41990	33.9	3
0	41991	33.9	2
0	41992	33.9	3
0	41993	33.9	2
0	41994	33.9	3
0	41995	33.9	2
0	41996	33.9	3
0	41997	33.9	2
0	42038	33.95	3
0	42039	33.95	2
0	42040	33.95	3
0	42041	33.95	2
0	42075	34	3
0	42076	34	2
0	42077	34	3
0	42078	34	2
0	42079	34	3
0	42080	34	2
0	42081	34	3
0	42082	34	2
0	42123	34.05	3
0	42124	34.05	2
0	42125	34.05	3
0	42126	34.05	2
0	42163	34.1	3
0	42164	34.1	2
0	42165	34.1	3
0	42166	34.1	2
0	42167	34.1	3
0	42168	34.1	2
0	42169	34.1	3
0	42170	34.1	2
0	42310	34.15	3
0	42311	34.15	2
0	42312	34.15	3
0	42313	34.15	2
0	42409	34.2	3
0	42410	34.2	2
0	42411	34.2	3
0	42412	34.2	2
0	42413	34.2	3
0	42414	34.2	2
0	42415	34.2	3
0	42416	34.2	2
0	42457	34.25	3
0	42458	34.25	2
0	42459	34.25	3
0	42460	34.25	2
0	42537	34.3	3
0	42538	34.3	2
0	42539	34.3	3
0	42540	34.3	2
0	42541	34.3	3
0	42542	34.3	2
0	42543	34.3	3
0	42544	34.3	2
0	42613	34.35	3
0	42614	34.35	2
0	42615	34.35	3
0	42616	34.35	2
0	42649	34.4	3
0	42650	34.4	2
0	42651	34.4	3
0	42652	34.4	2
0	42653	34.4	3
0	42654	34.4	2
0	42655	34.4	3
0	42656	34.4	2
0	42720	34.45	3
0	42721	34.45	2
0	42722	34.45	3
0	42723	34.45	2
0	42756	34.5	3
0	42757	34.5	2
0	42758	34.5	3
0	42759	34.5	2
0	42760	34.5	3
0	42761	34.5	2
0	42762	34.5	3
0	42763	34.5	2
0	42804	34.55	3
0	42805	34.55	2
0	42806	34.55	3
0	42807	34.55	2
0	42840	34.6	3
0	42841	34.6	2
0	42842	34.6	3
0	42843	34.6	2
0	42844	34.6	3
0	42845	34.6	2
0	42846	34.6	3
0	42847	34.6	2
0	42888	34.65	3
0	42889	34.65	2
0	42890	34.65	3
0	42891	34.65	2
0	43016	34.7	3
0	43017	34.7	2
0	43018	34.7	3
0	43019	34.7	2
0	43020	34.7	3
0	43021	34.7	2
0	43022	34.7	3
0	43023	34.7	2
0	43092	34.75	3
0	43093	34.75	2
0	43094	34.75	3
0	43095	34.75	2
0	43128	34.8	3
0	43129	34.8	2
0	43130	34.8	3
0	43131	34.8	2
0	43132	34.8	3
0	43133	34.8	2
0	43134	34.8	3
0	43135	34.8	2
0	43199	34.85	3
0	43200	34.85	2
0	43201	34.85	3
0	43202	34.85	2
0	43258	34.9	3
0	43259	34.9	2
0	43260	34.9	3
0	43261	34.9	2
0	43262	34.9	3
0	43263	34.9	2
0	43264	34.9	3
0	43265	34.9	2
0	43306	34.95	3
0	43307	34.95	2
0	43308	34.95	3
0	43309	34.95	2
0	43368	35	3
0	43369	35	2
0	43370	35	3
0	43371	35	2
0	43372	35	3
0	43373	35	2
0	43374	35	3
0	43375	35	2
0	43416	35.05	3
0	43417	35.05	2
0	43418	35.05	3
0	43419	35.05	2
0	43456	35.1	3
0	43457	35.1	2
0	43458	35.1	3
0	43459	35.1	2
0	43460	35.1	3
0	43461	35.1	2
0	43462	35.1	3
0	43463	35.1	2
0	43509	35.15	3
0	43510	35.15	2
0	43511	35.15	3
0	43512	35.15	2
0	43545	35.2	3
0	43546	35.2	2
0	43547	35.2	3
0	43548	35.2	2
0	43549	35.2	3
0	43550	35.2	2
0	43551	35.2	3
0	43552	35.2	2
0	43687	35.25	3
0	43688	35.25	2
0	43689	35.25	3
0	43690	35.25	2
0	43786	35.3	3
0	43787	35.3	2
0	43788	35.3	3
0	43789	35.3	2
0	43790	35.3	3
0	43791	35.3	2
0	43792	35.3	3
0	43793	35.3	2
0	43834	35.35	3
0	43835	35.35	2
0	43836	35.35	3
0	43837	35.35	2
0	43914	35.4	3
0	43915	35.4	2
0	43916	35.4	3
0	43917	35.4	2
0	43918	35.4	3
0	43919	35.4	2
0	43920	35.4	3
0	43921	35.4	2
0	43985	35.45	3
0	43986	35.45	2
0	43987	35.45	3
0	43988	35.45	2
0	44021	35.5	3
0	44022	35.5	2
0	44023	35.5	3
0	44024	35.5	2
0	44025	35.5	3
0	44026	35.5	2
0	44027	35.5	3
0	44028	35.5	2
0	44092	35.55	3
0	44093	35.55	2
0	44094	35.55	3
0	44095	35.55	2
0	44128	35.6	3
0	44129	35.6	2
0	44130	35.6	3
0	44131	35.6	2
0	44132	35.6	3
0	44133	35.6	2
0	44134	35.6	3
0	44135	35.6	2
0	44176	35.65	3
0	44177	35.65	2
0	44178	35.65	3
0	44179	35.65	2
0	44212	35.7	3
0	44213	35.7	2
0	44214	35.7	3
0	44215	35.7	2
0	44216	35.7	3
0	44217	35.7	2
0	44218	35.7	3
0	44219	35.7	2
0	44260	35.75	3
0	44261	35.75	2
0	44262	35.75	3
0	44263	35.75	2
0	44388	35.8	3
0	44389	35.8	2
0	44390	35.8	3
0	44391	35.8	2
0	44392	35.8	3
0	44393	35.8	2
0	44394	35.8	3
0	44395	35.8	2
0	44459	35.85	3
0	44460	35.85	2
0	44461	35.85	3
0	44462	35.85	2
0	44495	35.9	3
0	44496	35.9	2
0	44497	35.9	3
0	44498	35.9	2
0	44499	35.9	3
0	44500	35.9	2
0	44501	35.9	3
0	44502	35.9	2
0	44589	35.95	3
0	44590	35.95	2
0	44591	35.95	3
0	44592	35.95	2
0	44649	36	3
0	44650	36	2
0	44651	36	3
0	44652	36	2
0	44653	36	3
0	44654	36	2
0	44655	36	3
0	44656	36	2
0	44697	36.05	3
0	44698	36.05	2
0	44699	36.05	3
0	44700	36.05	2
0	44777	36.1	3
0	44778	36.1	2
0	44779	36.1	3
0	44780	36.1	2
0	44781	36.1	3
0	44782	36.1	2
0	44783	36.1	3
0	44784	36.1	2
0	44830	36.15	3
0	44831	36.15	2
0	44832	36.15	3
0	44833	36.15	2
0	44866	36.2	3
0	44867	36.2	2
0	44868	36.2	3
0	44869	36.2	2
0	44870	36.2	3
0	44871	36.2	2
0	44872	36.2	3
0	44873	36.2	2
0	44914	36.25	3
0	44915	36.25	2
0	44916	36.25	3
0	44917	36.25	2
0	44950	36.3	3
0	44951	36.3	2
0	44952	36.3	3
0	44953	36.3	2
0	44954	36.3	3
0	44955	36.3	2
0	44956	36.3	3
0	44957	36.3	2
0	45092	36.35	3
0	45093	36.35	2
0	45094	36.35	3
0	45095	36.35	2
0	45191	36.4	3
0	45192	36.4	2
0	45193	36.4	3
0	45194	36.4	2
0	45195	36.4	3
0	45196	36.4	2
0	45197	36.4	3
0	45198	36.4	2
0	45239	36.45	3
0	45240	36.45	2
0	45241	36.45	3
0	45242	36.45	2
0	45342	36.5	3
0	45343	36.5	2
0	45344	36.5	3
0	45345	36.5	2
0	45346	36.5	3
0	45347	36.5	2
0	45348	36.5	3
0	45349	36.5	2
0	45413	36.55	3
0	45414	36.55	2
0	45415	36.55	3
0	45416	36.55	2
0	45449	36.6	3
0	45450	36.6	2
0	45451	36.6	3
0	45452	36.6	2
0	45453	36.6	3
0	45454	36.6	2
0	45455	36.6	3
0	45456	36.6	2
0	45525	36.65	3
0	45526	36.65	2
0	45527	36.65	3
0	45528	36.65	2
0	45561	36.7	3
0	45562	36.7	2
0	45563	36.7	3
0	45564	36.7	2
0	45565	36.7	3
0	45566	36.7	2
0	45567	36.7	3
0	45568	36.7	2
0	45609	36.75	3
0	45610	36.75	2
0	45611	36.75	3
0	45612	36.75	2
0	45645	36.8	3
0	45646	36.8	2
0	45647	36.8	3
0	45648	36.8	2
0	45649	36.8	3
0	45650	36.8	2
0	45651	36.8	3
0	45652	36.8	2
0	45693	36.85	3
0	45694	36.85	2
0	45695	36.85	3
0	45696	36.85	2
0	45821	36.9	3
0	45822	36.9	2
0	45823	36.9	3
0	45824	36.9	2
0	45825	36.9	3
0	45826	36.9	2
0	45827	36.9	3
0	45828	36.9	2
0	45892	36.95	3
0	45893	36.95	2
0	45894	36.95	3
0	45895	36.95	2
0	45931	37	3
0	45932	37	2
0	45933	37	3
0	45934	37	2
0	45935	37	3
0	45936	37	2
0	45937	37	3
0	45938	37	2
0	45984	37.05	3
0	45985	37.05	2
0	45986	37.05	3
0	45987	37.05	2
0	46047	37.1	3
0	46048	37.1	2
0	46049	37.1	3
0	46050	37.1	2
0	46051	37.1	3
0	46052	37.1	2
0	46053	37.1	3
0	46054	37.1	2
0	46100	37.15	3
0	46101	37.15	2
0	46102	37.15	3
0	46103	37.15	2
0	46136	37.2	3
0	46137	37.2	2
0	46138	37.2	3
0	46139	37.2	2
0	46140	37.2	3
0	46141	37.2	2
0	46142	37.2	3
0	46143	37.2	2
0	46184	37.25	3
0	46185	37.25	2
0	46186	37.25	3
0	46187	37.25	2
0	46220	37.3	3
0	46221	37.3	2
0	46222	37.3	3
0	46223	37.3	2
0	46224	37.3	3
0	46225	37.3	2
0	46226	37.3	3
0	46227	37.3	2
0	46268	37.35	3
0	46269	37.35	2
0	46270	37.35	3
0	46271	37.35	2
0	46304	37.4	3
0	46305	37.4	2
0	46306	37.4	3
0	46307	37.4	2
0	46308	37.4	3
0	46309	37.4	2
0	46310	37.4	3
0	46311	37.4	2
0	46446	37.45	3
0	46447	37.45	2
0	46448	37.45	3
0	46449	37.45	2
0	46529	37.5	3
0	46530	37.5	2
0	46531	37.5	3
0	46532	37.5	2
0	46533	37.5	3
0	46534	37.5	2
0	46535	37.5	3
0	46536	37.5	2
0	46577	37.55	3
0	46578	37.55	2
0	46579	37.55	3
0	46580	37.55	2
0	46613	37.6	3
0	46614	37.6	2
0	46615	37.6	3
0	46616	37.6	2
0	46617	37.6	3
0	46618	37.6	2
0	46619	37.6	3
0	46620	37.6	2
0	46684	37.65	3
0	46685	37.65	2
0	46686	37.65	3
0	46687	37.65	2
0	46720	37.7	3
0	46721	37.7	2
0	46722	37.7	3
0	46723	37.7	2
0	46724	37.7	3
0	46725	37.7	2
0	46726	37.7	3
0	46727	37.7	2
0	46768	37.75	3
0	46769	37.75	2
0	46770	37.75	3
0	46771	37.75	2
0	46804	37.8	3
0	46805	37.8	2
0	46806	37.8	3
0	46807	37.8	2
0	46808	37.8	3
0	46809	37.8	2
0	46810	37.8	3
0	46811	37.8	2
0	46852	37.85	3
0	46853	37.85	2
0	46854	37.85	3
0	46855	37.85	2
0	46888	37.9	3
0	46889	37.9	2
0	46890	37.9	3
0	46891	37.9	2
0	46892	37.9	3
0	46893	37.9	2
0	46894	37.9	3
0	46895	37.9	2
0	46936	37.95	3
0	46937	37.95	2
0	46938	37.95	3
0	46939	37.95	2
0	47065	38	3
0	47066	38	2
0	47067	38	3
0	47068	38	2
0	47069	38	3
0	47070	38	2
0	47071	38	3
0	47072	38	2
0	47141	38.05	3
0	47142	38.05	2
0	47143	38.05	3
0	47144	38.05	2
0	47225	38.1	3
0	47226	38.1	2
0	47227	38.1	3
0	47228	38.1	2
0	47229	38.1	3
0	47230	38.1	2
0	47231	38.1	3
0	47232	38.1	2
0	47278	38.15	3
0	47279	38.15	2
0	47280	38.15	3
0	47281	38.15	2
0	47337	38.2	3
0	47338	38.2	2
0	47339	38.2	3
0	47340	38.2	2
0	47341	38.2	3
0	47342	38.2	2
0	47343	38.2	3
0	47344	38.2	2
0	47425	38.25	3
0	47426	38.25	2
0	47427	38.25	3
0	47428	38.25	2
0	47461	38.3	3
0	47462	38.3	2
0	47463	38.3	3
0	47464	38.3	2
0	47465	38.3	3
0	47466	38.3	2
0	47467	38.3	3
0	47468	38.3	2
0	47509	38.35	3
0	47510	38.35	2
0	47511	38.35	3
0	47512	38.35	2
0	47550	38.4	3
0	47551	38.4	2
0	47552	38.4	3
0	47553	38.4	2
0	47554	38.4	3
0	47555	38.4	2
0	47556	38.4	3
0	47557	38.4	2
0	47598	38.45	3
0	47599	38.45	2
0	47600	38.45	3
0	47601	38.45	2
0	47634	38.5	3
0	47635	38.5	2
0	47636	38.5	3
0	47637	38.5	2
0	47638	38.5	3
0	47639	38.5	2
0	47640	38.5	3
0	47641	38.5	2
0	47776	38.55	3
0	47777	38.55	2
0	47778	38.55	3
0	47779	38.55	2
0	47848	38.6	3
0	47849	38.6	2
0	47850	38.6	3
0	47851	38.6	2
0	47852	38.6	3
0	47853	38.6	2
0	47854	38.6	3
0	47855	38.6	2
0	47924	38.65	3
0	47925	38.65	2
0	47926	38.65	3
0	47927	38.65	2
0	47960	38.7	3
0	47961	38.7	2
0	47962	38.7	3
0	47963	38.7	2
0	47964	38.7	3
0	47965	38.7	2
0	47966	38.7	3
0	47967	38.7	2
0	48013	38.75	3
0	48014	38.75	2
0	48015	38.75	3
0	48016	38.75	2
0	48066	38.8	3
0	48067	38.8	2
0	48068	38.8	3
0	48069	38.8	2
0	48070	38.8	3
0	48071	38.8	2
0	48072	38.8	3
0	48073	38.8	2
0	48114	38.85	3
0	48115	38.85	2
0	48116	38.85	3
0	48117	38.85	2
0	48150	38.9	3
0	48151	38.9	2
0	48152	38.9	3
0	48153	38.9	2
0	48154	38.9	3
0	48155	38.9	2
0	48156	38.9	3
0	48157	38.9	2
0	48198	38.95	3
0	48199	38.95	2
0	48200	38.95	3
0	48201	38.95	2
0	48237	39	3
0	48238	39	2
0	48239	39	3
0	48240	39	2
0	48241	39	3
0	48242	39	2
0	48243	39	3
0	48244	39	2
0	48285	39.05	3
0	48286	39.05	2
0	48287	39.05	3
0	48288	39.05	2
0	48417	39.1	3
0	48418	39.1	2
0	48419	39.1	3
0	48420	39.1	2
0	48421	39.1	3
0	48422	39.1	2
0	48423	39.1	3
0	48424	39.1	2
0	48470	39.15	3
0	48471	39.15	2
0	48472	39.15	3
0	48473	39.15	2
0	48523	39.2	3
0	48524	39.2	2
0	48525	39.2	3
0	48526	39.2	2
0	48527	39.2	3
0	48528	39.2	2
0	48529	39.2	3
0	48530	39.2	2
0	48571	39.25	3
0	48572	39.25	2
0	48573	39.25	3
0	48574	39.25	2
0	48607	39.3	3
0	48608	39.3	2
0	48609	39.3	3
0	48610	39.3	2
0	48611	39.3	3
0	48612	39.3	2
0	48613	39.3	3
0	48614	39.3	2
0	48678	39.35	3
0	48679	39.35	2
0	48680	39.35	3
0	48681	39.35	2
0	48714	39.4	3
0	48715	39.4	2
0	48716	39.4	3
0	48717	39.4	2
0	48718	39.4	3
0	48719	39.4	2
0	48720	39.4	3
0	48721	39.4	2
0	48762	39.45	3
0	48763	39.45	2
0	48764	39.45	3
0	48765	39.45	2
0	48798	39.5	3
0	48799	39.5	2
0	48800	39.5	3
0	48801	39.5	2
0	48802	39.5	3
0	48803	39.5	2
0	48804	39.5	3
0	48805	39.5	2
0	48846	39.55	3
0	48847	39.55	2
0	48848	39.55	3
0	48849	39.55	2
0	48882	39.6	3
0	48883	39.6	2
0	48884	39.6	3
0	48885	39.6	2
0	48886	39.6	3
0	48887	39.6	2
0	48888	39.6	3
0	48889	39.6	2
0	49024	39.65	3
0	49025	39.65	2
0	49026	39.65	3
0	49027	39.65	2
0	49079	39.7	3
0	49080	39.7	2
0	49081	39.7	3
0	49082	39.7	2
0	49083	39.7	3
0	49084	39.7	2
0	49085	39.7	3
0	49086	39.7	2
0	49184	39.75	3
0	49185	39.75	2
0	49186	39.75	3
0	49187	39.75	2
0	49228	39.8	3
0	49229	39.8	2
0	49230	39.8	3
0	49231	39.8	2
0	49232	39.8	3
0	49233	39.8	2
0	49234	39.8	3
0	49235	39.8	2
0	49293	39.85	3
0	49294	39.85	2
0	49295	39.85	3
0	49296	39.85	2
0	49352	39.9	3
0	49353	39.9	2
0	49354	39.9	3
0	49355	39.9	2
0	49356	39.9	3
0	49357	39.9	2
0	49358	39.9	3
0	49359	39.9	2
0	49400	39.95	3
0	49401	39.95	2
0	49402	39.95	3
0	49403	39.95	2
0	49454	40	3
0	49455	40	2
0	49456	40	3
0	49457	40	2
0	49458	40	3
0	49459	40	2
0	49460	40	3
0	49461	40	2
0	49502	40.05	3
0	49503	40.05	2
0	49504	40.05	3
0	49505	40.05	2
0	49542	40.1	3
0	49543	40.1	2
0	49544	40.1	3
0	49545	40.1	2
0	49546	40.1	3
0	49547	40.1	2
0	49548	40.1	3
0	49549	40.1	2
0	49595	40.15	3
0	49596	40.15	2
0	49597	40.15	3
0	49598	40.15	2
0	49768	40.2	3
0	49769	40.2	2
0	49770	40.2	3
0	49771	40.2	2
0	49772	40.2	3
0	49773	40.2	2
0	49774	40.2	3
0	49775	40.2	2
0	49899	40.25	3
0	49900	40.25	2
0	49901	40.25	3
0	49902	40.25	2
0	49979	40.3	3
0	49980	40.3	2
0	49981	40.3	3
0	49982	40.3	2
0	49983	40.3	3
0	49984	40.3	2
0	49985	40.3	3
0	49986	40.3	2
0	50050	40.35	3
0	50051	40.35	2
0	50052	40.35	3
0	50053	40.35	2
0	50109	40.4	3
0	50110	40.4	2
0	50111	40.4	3
0	50112	40.4	2
0	50113	40.4	3
0	50114	40.4	2
0	50115	40.4	3
0	50116	40.4	2
0	50180	40.45	3
0	50181	40.45	2
0	50182	40.45	3
0	50183	40.45	2
0	50216	40.5	3
0	50217	40.5	2
0	50218	40.5	3
0	50219	40.5	2
0	50220	40.5	3
0	50221	40.5	2
0	50222	40.5	3
0	50223	40.5	2
0	50269	40.55	3
0	50270	40.55	2
0	50271	40.55	3
0	50272	40.55	2
0	50305	40.6	3
0	50306	40.6	2
0	50307	40.6	3
0	50308	40.6	2
0	50309	40.6	3
0	50310	40.6	2
0	50311	40.6	3
0	50312	40.6	2
0	50353	40.65	3
0	50354	40.65	2
0	50355	40.65	3
0	50356	40.65	2
0	50389	40.7	3
0	50390	40.7	2
0	50391	40.7	3
0	50392	40.7	2
0	50393	40.7	3
0	50394	40.7	2
0	50395	40.7	3
0	50396	40.7	2
0	50534	40.75	3
0	50535	40.75	2
0	50536	40.75	3
0	50537	40.75	2
0	50570	40.8	3
0	50571	40.8	2
0	50572	40.8	3
0	50573	40.8	2
0	50574	40.8	3
0	50575	40.8	2
0	50576	40.8	3
0	50577	40.8	2
0	50641	40.85	3
0	50642	40.85	2
0	50643	40.85	3
0	50644	40.85	2
0	50677	40.9	3
0	50678	40.9	2
0	50679	40.9	3
0	50680	40.9	2
0	50681	40.9	3
0	50682	40.9	2
0	50683	40.9	3
0	50684	40.9	2
0	50725	40.95	3
0	50726	40.95	2
0	50727	40.95	3
0	50728	40.95	2
0	50787	41	3
0	50788	41	2
0	50789	41	3
0	50790	41	2
0	50791	41	3
0	50792	41	2
0	50793	41	3
0	50794	41	2
0	50835	41.05	3
0	50836	41.05	2
0	50837	41.05	3
0	50838	41.05	2
0	50875	41.1	3
0	50876	41.1	2
0	50877	41.1	3
0	50878	41.1	2
0	50879	41.1	3
0	50880	41.1	2
0	50881	41.1	3
0	50882	41.1	2
0	50928	41.15	3
0	50929	41.15	2
0	50930	41.15	3
0	50931	41.15	2
0	50964	41.2	3
0	50965	41.2	2
0	50966	41.2	3
0	50967	41.2	2
0	50968	41.2	3
0	50969	41.2	2
0	50970	41.2	3
0	50971	41.2	2
0	51012	41.25	3
0	51013	41.25	2
0	51014	41.25	3
0	51015	41.25	2
0	51142	41.3	3
0	51143	41.3	2
0	51144	41.3	3
0	51145	41.3	2
0	51146	41.3	3
0	51147	41.3	2
0	51148	41.3	3
0	51149	41.3	2
0	51209	41.35	3
0	51210	41.35	2
0	51211	41.35	3
0	51212	41.35	2
0	51289	41.4	3
0	51290	41.4	2
0	51291	41.4	3
0	51292	41.4	2
0	51293	41.4	3
0	51294	41.4	2
0	51295	41.4	3
0	51296	41.4	2
0	51337	41.45	3
0	51338	41.45	2
0	51339	41.45	3
0	51340	41.45	2
0	51373	41.5	3
0	51374	41.5	2
0	51375	41.5	3
0	51376	41.5	2
0	51377	41.5	3
0	51378	41.5	2
0	51379	41.5	3
0	51380	41.5	2
0	51444	41.55	3
0	51445	41.55	2
0	51446	41.55	3
0	51447	41.55	2
0	51480	41.6	3
0	51481	41.6	2
0	51482	41.6	3
0	51483	41.6	2
0	51484	41.6	3
0	51485	41.6	2
0	51486	41.6	3
0	51487	41.6	2
0	51528	41.65	3
0	51529	41.65	2
0	51530	41.65	3
0	51531	41.65	2
0	51564	41.7	3
0	51565	41.7	2
0	51566	41.7	3
0	51567	41.7	2
0	51568	41.7	3
0	51569	41.7	2
0	51570	41.7	3
0	51571	41.7	2
0	51612	41.75	3
0	51613	41.75	2
0	51614	41.75	3
0	51615	41.75	2
0	51648	41.8	3
0	51649	41.8	2
0	51650	41.8	3
0	51651	41.8	2
0	51652	41.8	3
0	51653	41.8	2
0	51654	41.8	3
0	51655	41.8	2
0	51788	41.85	3
0	51789	41.85	2
0	51790	41.85	3
0	51791	41.85	2
0	51824	41.9	3
0	51825	41.9	2
0	51826	41.9	3
0	51827	41.9	2
0	51828	41.9	3
0	51829	41.9	2
0	51830	41.9	3
0	51831	41.9	2
0	51918	41.95	3
0	51919	41.95	2
0	51920	41.95	3
0	51921	41.95	2
0	51978	42	3
0	51979	42	2
0	51980	42	3
0	51981	42	2
0	51982	42	3
0	51983	42	2
0	51984	42	3
0	51985	42	2
0	52026	42.05	3
0	52027	42.05	2
0	52028	42.05	3
0	52029	42.05	2
0	52133	42.1	3
0	52134	42.1	2
0	52135	42.1	3
0	52136	42.1	2
0	52137	42.1	3
0	52138	42.1	2
0	52139	42.1	3
0	52140	42.1	2
0	52191	42.15	3
0	52192	42.15	2
0	52193	42.15	3
0	52194	42.15	2
0	52227	42.2	3
0	52228	42.2	2
0	52229	42.2	3
0	52230	42.2	2
0	52231	42.2	3
0	52232	42.2	2
0	52233	42.2	3
0	52234	42.2	2
0	52275	42.25	3
0	52276	42.25	2
0	52277	42.25	3
0	52278	42.25	2
0	52311	42.3	3
0	52312	42.3	2
0	52313	42.3	3
0	52314	42.3	2
0	52315	42.3	3
0	52316	42.3	2
0	52317	42.3	3
0	52318	42.3	2
0	52359	42.35	3
0	52360	42.35	2
0	52361	42.35	3
0	52362	42.35	2
0	52489	42.4	3
0	52490	42.4	2
0	52491	42.4	3
0	52492	42.4	2
0	52493	42.4	3
0	52494	42.4	2
0	52495	42.4	3
0	52496	42.4	2
0	52556	42.45	3
0	52557	42.45	2
0	52558	42.45	3
0	52559	42.45	2
0	52659	42.5	3
0	52660	42.5	2
0	52661	42.5	3
0	52662	42.5	2
0	52663	42.5	3
0	52664	42.5	2
0	52665	42.5	3
0	52666	42.5	2
0	52707	42.55	3
0	52708	42.55	2
0	52709	42.55	3
0	52710	42.55	2
0	52743	42.6	3
0	52744	42.6	2
0	52745	42.6	3
0	52746	42.6	2
0	52747	42.6	3
0	52748	42.6	2
0	52749	42.6	3
0	52750	42.6	2
0	52858	42.65	3
0	52859	42.65	2
0	52860	42.65	3
0	52861	42.65	2
0	52894	42.7	3
0	52895	42.7	2
0	52896	42.7	3
0	52897	42.7	2
0	52898	42.7	3
0	52899	42.7	2
0	52900	42.7	3
0	52901	42.7	2
0	52942	42.75	3
0	52943	42.75	2
0	52944	42.75	3
0	52945	42.75	2
0	52978	42.8	3
0	52979	42.8	2
0	52980	42.8	3
0	52981	42.8	2
0	52982	42.8	3
0	52983	42.8	2
0	52984	42.8	3
0	52985	42.8	2
0	53026	42.85	3
0	53027	42.85	2
0	53028	42.85	3
0	53029	42.85	2
0	53062	42.9	3
0	53063	42.9	2
0	53064	42.9	3
0	53065	42.9	2
0	53066	42.9	3
0	53067	42.9	2
0	53068	42.9	3
0	53069	42.9	2
0	53202	42.95	3
0	53203	42.95	2
0	53204	42.95	3
0	53205	42.95	2
0	53241	43	3
0	53242	43	2
0	53243	43	3
0	53244	43	2
0	53245	43	3
0	53246	43	2
0	53247	43	3
0	53248	43	2
0	53335	43.05	3
0	53336	43.05	2
0	53337	43.05	3
0	53338	43.05	2
0	53375	43.1	3
0	53376	43.1	2
0	53377	43.1	3
0	53378	43.1	2
0	53379	43.1	3
0	53380	43.1	2
0	53381	43.1	3
0	53382	43.1	2
0	53428	43.15	3
0	53429	43.15	2
0	53430	43.15	3
0	53431	43.15	2
0	53531	43.2	3
0	53532	43.2	2
0	53533	43.2	3
0	53534	43.2	2
0	53535	43.2	3
[...]
0	57044	46.1	3
0	57045	46.1	2
0	57091	46.15	3
0	57092	46.15	2
0	57093	46.15	3
0	57094	46.15	2
0	57127	46.2	3
0	57128	46.2	2
0	57129	46.2	3
0	57130	46.2	2
0	57131	46.2	3
0	57132	46.2	2
0	57133	46.2	3
0	57134	46.2	2
0	57269	46.25	3
0	57270	46.25	2
0	57271	46.25	3
0	57272	46.25	2
0	57324	46.3	3
0	57325	46.3	2
0	57326	46.3	3
0	57327	46.3	2
0	57328	46.3	3
0	57329	46.3	2
0	57330	46.3	3
0	57331	46.3	2
0	57395	46.35	3
0	57396	46.35	2
0	57397	46.35	3
0	57398	46.35	2
0	57431	46.4	3
0	57432	46.4	2
0	57433	46.4	3
0	57434	46.4	2
0	57435	46.4	3
0	57436	46.4	2
0	57437	46.4	3
0	57438	46.4	2
0	57502	46.45	3
0	57503	46.45	2
0	57504	46.45	3
0	57505	46.45	2
0	57555	46.5	3
0	57556	46.5	2
0	57557	46.5	3
0	57558	46.5	2
0	57559	46.5	3
0	57560	46.5	2
0	57561	46.5	3
0	57562	46.5	2
0	57603	46.55	3
0	57604	46.55	2
0	57605	46.55	3
0	57606	46.55	2
0	57667	46.6	3
0	57668	46.6	2
0	57669	46.6	3
0	57670	46.6	2
0	57671	46.6	3
0	57672	46.6	2
0	57673	46.6	3
0	57674	46.6	2
0	57715	46.65	3
0	57716	46.65	2
0	57717	46.65	3
0	57718	46.65	2
0	57751	46.7	3
0	57752	46.7	2
0	57753	46.7	3
0	57754	46.7	2
0	57755	46.7	3
0	57756	46.7	2
0	57757	46.7	3
0	57758	46.7	2
0	57799	46.75	3
0	57800	46.75	2
0	57801	46.75	3
0	57802	46.75	2
0	57927	46.8	3
0	57928	46.8	2
0	57929	46.8	3
0	57930	46.8	2
0	57931	46.8	3
0	57932	46.8	2
0	57933	46.8	3
0	57934	46.8	2
0	57975	46.85	3
0	57976	46.85	2
0	57977	46.85	3
0	57978	46.85	2
0	58016	46.9	3
0	58017	46.9	2
0	58018	46.9	3
0	58019	46.9	2
0	58020	46.9	3
0	58021	46.9	2
0	58022	46.9	3
0	58023	46.9	2
0	58087	46.95	3
0	58088	46.95	2
0	58089	46.95	3
0	58090	46.95	2
0	58149	47	3
0	58150	47	2
0	58151	47	3
0	58152	47	2
0	58153	47	3
0	58154	47	2
0	58155	47	3
0	58156	47	2
0	58197	47.05	3
0	58198	47.05	2
0	58199	47.05	3
0	58200	47.05	2
0	58242	47.1	3
0	58243	47.1	2
0	58244	47.1	3
0	58245	47.1	2
0	58246	47.1	3
0	58247	47.1	2
0	58248	47.1	3
0	58249	47.1	2
0	58352	47.15	3
0	58353	47.15	2
0	58354	47.15	3
0	58355	47.15	2
0	58396	47.2	3
0	58397	47.2	2
0	58398	47.2	3
0	58399	47.2	2
0	58400	47.2	3
0	58401	47.2	2
0	58402	47.2	3
0	58403	47.2	2
0	58444	47.25	3
0	58445	47.25	2
0	58446	47.25	3
0	58447	47.25	2
0	58480	47.3	3
0	58481	47.3	2
0	58482	47.3	3
0	58483	47.3	2
0	58484	47.3	3
0	58485	47.3	2
0	58486	47.3	3
0	58487	47.3	2
0	58622	47.35	3
0	58623	47.35	2
0	58624	47.35	3
0	58625	47.35	2
0	58677	47.4	3
0	58678	47.4	2
0	58679	47.4	3
0	58680	47.4	2
0	58681	47.4	3
0	58682	47.4	2
0	58683	47.4	3
0	58684	47.4	2
0	58725	47.45	3
0	58726	47.45	2
0	58727	47.45	3
0	58728	47.45	2
0	58761	47.5	3
0	58762	47.5	2
0	58763	47.5	3
0	58764	47.5	2
0	58765	47.5	3
0	58766	47.5	2
0	58767	47.5	3
0	58768	47.5	2
0	58832	47.55	3
0	58833	47.55	2
0	58834	47.55	3
0	58835	47.55	2
0	58868	47.6	3
0	58869	47.6	2
0	58870	47.6	3
0	58871	47.6	2
0	58872	47.6	3
0	58873	47.6	2
0	58874	47.6	3
0	58875	47.6	2
0	58916	47.65	3
0	58917	47.65	2
0	58918	47.65	3
0	58919	47.65	2
0	58975	47.7	3
0	58976	47.7	2
0	58977	47.7	3
0	58978	47.7	2
0	58979	47.7	3
0	58980	47.7	2
0	58981	47.7	3
0	58982	47.7	2
0	59023	47.75	3
0	59024	47.75	2
0	59025	47.75	3
0	59026	47.75	2
0	59059	47.8	3
0	59060	47.8	2
0	59061	47.8	3
0	59062	47.8	2
0	59063	47.8	3
0	59064	47.8	2
0	59065	47.8	3
0	59066	47.8	2
0	59107	47.85	3
0	59108	47.85	2
0	59109	47.85	3
0	59110	47.85	2
0	59235	47.9	3
0	59236	47.9	2
0	59237	47.9	3
0	59238	47.9	2
0	59239	47.9	3
0	59240	47.9	2
0	59241	47.9	3
0	59242	47.9	2
0	59283	47.95	3
0	59284	47.95	2
0	59285	47.95	3
0	59286	47.95	2
0	59320	48	3
0	59321	48	2
0	59322	48	3
0	59323	48	2
0	59324	48	3
0	59325	48	2
0	59326	48	3
0	59327	48	2
0	59368	48.05	3
0	59369	48.05	2
0	59370	48.05	3
0	59371	48.05	2
0	59488	48.1	3
0	59489	48.1	2
0	59490	48.1	3
0	59491	48.1	2
0	59492	48.1	3
0	59493	48.1	2
0	59494	48.1	3
0	59495	48.1	2
0	59549	48.15	3
0	59550	48.15	2
0	59551	48.15	3
0	59552	48.15	2
0	59585	48.2	3
0	59586	48.2	2
0	59587	48.2	3
0	59588	48.2	2
0	59589	48.2	3
0	59590	48.2	2
0	59591	48.2	3
0	59592	48.2	2
0	59661	48.25	3
0	59662	48.25	2
0	59663	48.25	3
0	59664	48.25	2
0	59697	48.3	3
0	59698	48.3	2
0	59699	48.3	3
0	59700	48.3	2
0	59701	48.3	3
0	59702	48.3	2
0	59703	48.3	3
0	59704	48.3	2
0	59745	48.35	3
0	59746	48.35	2
0	59747	48.35	3
0	59748	48.35	2
0	59781	48.4	3
0	59782	48.4	2
0	59783	48.4	3
0	59784	48.4	2
0	59785	48.4	3
0	59786	48.4	2
0	59787	48.4	3
0	59788	48.4	2
0	59923	48.45	3
0	59924	48.45	2
0	59925	48.45	3
0	59926	48.45	2
0	59978	48.5	3
0	59979	48.5	2
0	59980	48.5	3
0	59981	48.5	2
0	59982	48.5	3
0	59983	48.5	2
0	59984	48.5	3
0	59985	48.5	2
0	60031	48.55	3
0	60032	48.55	2
0	60033	48.55	3
0	60034	48.55	2
0	60067	48.6	3
0	60068	48.6	2
0	60069	48.6	3
0	60070	48.6	2
0	60071	48.6	3
0	60072	48.6	2
0	60073	48.6	3
0	60074	48.6	2
0	60159	48.65	3
0	60160	48.65	2
0	60161	48.65	3
0	60162	48.65	2
0	60200	48.7	3
0	60201	48.7	2
0	60202	48.7	3
0	60203	48.7	2
0	60204	48.7	3
0	60205	48.7	2
0	60206	48.7	3
0	60207	48.7	2
0	60248	48.75	3
0	60249	48.75	2
0	60250	48.75	3
0	60251	48.75	2
0	60307	48.8	3
0	60308	48.8	2
0	60309	48.8	3
0	60310	48.8	2
0	60311	48.8	3
0	60312	48.8	2
0	60313	48.8	3
0	60314	48.8	2
0	60355	48.85	3
0	60356	48.85	2
0	60357	48.85	3
0	60358	48.85	2
0	60391	48.9	3
0	60392	48.9	2
0	60393	48.9	3
0	60394	48.9	2
0	60395	48.9	3
0	60396	48.9	2
0	60397	48.9	3
0	60398	48.9	2
0	60439	48.95	3
0	60440	48.95	2
0	60441	48.95	3
0	60442	48.95	2
0	60570	49	3
0	60571	49	2
0	60572	49	3
0	60573	49	2
0	60574	49	3
0	60575	49	2
0	60576	49	3
0	60577	49	2
0	60618	49.05	3
0	60619	49.05	2
0	60620	49.05	3
0	60621	49.05	2
0	60658	49.1	3
0	60659	49.1	2
0	60660	49.1	3
0	60661	49.1	2
0	60662	49.1	3
0	60663	49.1	2
0	60664	49.1	3
0	60665	49.1	2
0	60711	49.15	3
0	60712	49.15	2
0	60713	49.15	3
0	60714	49.15	2
0	60791	49.2	3
0	60792	49.2	2
0	60793	49.2	3
0	60794	49.2	2
0	60795	49.2	3
0	60796	49.2	2
0	60797	49.2	3
0	60798	49.2	2
0	60839	49.25	3
0	60840	49.25	2
0	60841	49.25	3
0	60842	49.25	2
0	60875	49.3	3
0	60876	49.3	2
0	60877	49.3	3
0	60878	49.3	2
0	60879	49.3	3
0	60880	49.3	2
0	60881	49.3	3
0	60882	49.3	2
0	60946	49.35	3
0	60947	49.35	2
0	60948	49.35	3
0	60949	49.35	2
0	60982	49.4	3
0	60983	49.4	2
0	60984	49.4	3
0	60985	49.4	2
0	60986	49.4	3
0	60987	49.4	2
0	60988	49.4	3
0	60989	49.4	2
0	61030	49.45	3
0	61031	49.45	2
0	61032	49.45	3
0	61033	49.45	2
0	61066	49.5	3
0	61067	49.5	2
0	61068	49.5	3
0	61069	49.5	2
0	61070	49.5	3
0	61071	49.5	2
0	61072	49.5	3
0	61073	49.5	2
0	61208	49.55	3
0	61209	49.55	2
0	61210	49.55	3
0	61211	49.55	2
0	61263	49.6	3
0	61264	49.6	2
0	61265	49.6	3
0	61266	49.6	2
0	61267	49.6	3
0	61268	49.6	2
0	61269	49.6	3
0	61270	49.6	2
0	61311	49.65	3
0	61312	49.65	2
0	61313	49.65	3
0	61314	49.65	2
0	61370	49.7	3
0	61371	49.7	2
0	61372	49.7	3
0	61373	49.7	2
0	61374	49.7	3
0	61375	49.7	2
0	61376	49.7	3
0	61377	49.7	2
0	61441	49.75	3
0	61442	49.75	2
0	61443	49.75	3
0	61444	49.75	2
0	61477	49.8	3
0	61478	49.8	2
0	61479	49.8	3
0	61480	49.8	2
0	61481	49.8	3
0	61482	49.8	2
0	61483	49.8	3
0	61484	49.8	2
0	61582	49.85	3
0	61583	49.85	2
0	61584	49.85	3
0	61585	49.85	2
0	61649	49.9	3
0	61650	49.9	2
0	61651	49.9	3
0	61652	49.9	2
0	61653	49.9	3
0	61654	49.9	2
0	61655	49.9	3
0	61656	49.9	2
0	61697	49.95	3
0	61698	49.95	2
0	61699	49.95	3
0	61700	49.95	2
0	61734	50	3
0	61735	50	2
0	61736	50	3
0	61737	50	2
0	61738	50	3
0	61739	50	2
0	61740	50	3
0	61741	50	2
0	61782	50.05	3
0	61783	50.05	2
0	61784	50.05	3
0	61785	50.05	2
0	61914	50.1	3
0	61915	50.1	2
0	61916	50.1	3
0	61917	50.1	2
0	61918	50.1	3
0	61919	50.1	2
0	61920	50.1	3
0	61921	50.1	2
0	61984	50.15	3
0	61985	50.15	2
0	61986	50.15	3
0	61987	50.15	2
0	62020	50.2	3
0	62021	50.2	2
0	62022	50.2	3
0	62023	50.2	2
0	62024	50.2	3
0	62025	50.2	2
0	62026	50.2	3
0	62027	50.2	2
0	62091	50.25	3
0	62092	50.25	2
0	62093	50.25	3
0	62094	50.25	2
1	937	1.1	nan
1	938	1.1	nan
1	939	1.1	nan
1	940	1.1	nan
1	2181	2.1	nan
1	2182	2.1	nan
1	2183	2.1	nan
1	2184	2.1	nan
1	3437	3.1	nan
1	3438	3.1	nan
1	3439	3.1	nan
1	3440	3.1	nan
1	4693	4.1	nan
1	4694	4.1	nan
1	4695	4.1	nan
1	4696	4.1	nan
1	5947	5.1	nan
1	5948	5.1	nan
1	5949	5.1	nan
1	5950	5.1	nan
1	7216	6.1	nan
1	7217	6.1	nan
1	7218	6.1	nan
1	7219	6.1	nan
1	8309	7.1	nan
1	8310	7.1	nan
1	8311	7.1	nan
1	8312	7.1	nan
1	9591	8.1	nan
1	9592	8.1	nan
1	9593	8.1	nan
1	9594	8.1	nan
1	10861	9.1	nan
1	10862	9.1	nan
1	10863	9.1	nan
1	10864	9.1	nan
1	12126	10.1	nan
1	12127	10.1	nan
1	12128	10.1	nan
1	12129	10.1	nan
1	13757	11.1	nan
1	13758	11.1	nan
1	13759	11.1	nan
1	13760	11.1	nan
1	15132	12.1	nan
1	15133	12.1	nan
1	15134	12.1	nan
1	15135	12.1	nan
1	16381	13.1	nan
1	16382	13.1	nan
1	16383	13.1	nan
1	16384	13.1	nan
1	17716	14.1	nan
1	17717	14.1	nan
1	17718	14.1	nan
1	17719	14.1	nan
1	18933	15.1	nan
1	18934	15.1	nan
1	18935	15.1	nan
1	18936	15.1	nan
1	20112	16.1	nan
1	20113	16.1	nan
1	20114	16.1	nan
1	20115	16.1	nan
1	21429	17.1	nan
1	21430	17.1	nan
1	21431	17.1	nan
1	21432	17.1	nan
1	22632	18.1	nan
1	22633	18.1	nan
1	22634	18.1	nan
1	22635	18.1	nan
1	23907	19.1	nan
1	23908	19.1	nan
1	23909	19.1	nan
1	23910	19.1	nan
1	25197	20.1	nan
1	25198	20.1	nan
1	25199	20.1	nan
1	25200	20.1	nan
1	26371	21.1	nan
1	26372	21.1	nan
1	26373	21.1	nan
1	26374	21.1	nan
1	27513	22.1	nan
1	27514	22.1	nan
1	27515	22.1	nan
1	27516	22.1	nan
1	28736	23.1	nan
1	28737	23.1	nan
1	28738	23.1	nan
1	28739	23.1	nan
1	30010	24.1	nan
1	30011	24.1	nan
1	30012	24.1	nan
1	30013	24.1	nan
1	31228	25.1	nan
1	31229	25.1	nan
1	31230	25.1	nan
1	31231	25.1	nan
1	32384	26.1	nan
1	32385	26.1	nan
1	32386	26.1	nan
1	32387	26.1	nan
1	33679	27.1	nan
1	33680	27.1	nan
1	33681	27.1	nan
1	33682	27.1	nan
1	34942	28.1	nan
1	34943	28.1	nan
1	34944	28.1	nan
1	34945	28.1	nan
1	36126	29.1	nan
1	36127	29.1	nan
1	36128	29.1	nan
1	36129	29.1	nan
1	37399	30.1	nan
1	37400	30.1	nan
1	37401	30.1	nan
1	37402	30.1	nan
1	38540	31.1	nan
1	38541	31.1	nan
1	38542	31.1	nan
1	38543	31.1	nan
1	39793	32.1	nan
1	39794	32.1	nan
1	39795	32.1	nan
1	39796	32.1	nan
1	40962	33.1	nan
1	40963	33.1	nan
1	40964	33.1	nan
1	40965	33.1	nan
1	42159	34.1	nan
1	42160	34.1	nan
1	42161	34.1	nan
1	42162	34.1	nan
1	43452	35.1	nan
1	43453	35.1	nan
1	43454	35.1	nan
1	43455	35.1	nan
1	44773	36.1	nan
1	44774	36.1	nan
1	44775	36.1	nan
1	44776	36.1	nan
1	46043	37.1	nan
1	46044	37.1	nan
1	46045	37.1	nan
1	46046	37.1	nan
1	47221	38.1	nan
1	47222	38.1	nan
1	47223	38.1	nan
1	47224	38.1	nan
1	48413	39.1	nan
1	48414	39.1	nan
1	48415	39.1	nan
1	48416	39.1	nan
1	49538	40.1	nan
1	49539	40.1	nan
1	49540	40.1	nan
1	49541	40.1	nan
1	50871	41.1	nan
1	50872	41.1	nan
1	50873	41.1	nan
1	50874	41.1	nan
1	52129	42.1	nan
1	52130	42.1	nan
1	52131	42.1	nan
1	52132	42.1	nan
1	53371	43.1	nan
1	53372	43.1	nan
1	53373	43.1	nan
1	53374	43.1	nan
1	54554	44.1	nan
1	54555	44.1	nan
1	54556	44.1	nan
1	54557	44.1	nan
1	55714	45.1	nan
1	55715	45.1	nan
1	55716	45.1	nan
1	55717	45.1	nan
1	57034	46.1	nan
1	57035	46.1	nan
1	57036	46.1	nan
1	57037	46.1	nan
1	58238	47.1	nan
1	58239	47.1	nan
1	58240	47.1	nan
1	58241	47.1	nan
1	59484	48.1	nan
1	59485	48.1	nan
1	59486	48.1	nan
1	59487	48.1	nan
1	60654	49.1	nan
1	60655	49.1	nan
1	60656	49.1	nan
1	60657	49.1	nan
1	61910	50.1	nan
1	61911	50.1	nan
1	61912	50.1	nan
1	61913	50.1	nan
2	12708	10.502912534095	141
2	12727	10.516752534095	282
2	12746	10.530592534095	423
2	12765	10.544432534095	564
2	12820	10.558272534095	705
2	12834	10.572112534095	846
2	12848	10.585952534095	987
2	12867	10.599792534095	1128
2	12936	10.613632534095	1269
2	13578	11.052803724658	1410
2	13597	11.057571777798	1551
2	13619	11.066643724658	1692
2	13627	11.066752534095	1833
2	13646	11.071411777798	1974
2	13676	11.080483724658	2115
2	13695	11.085251777798	2256
2	13717	11.094323724658	2397
2	13725	11.094432534095	2538
2	13744	11.099091777798	2679
2	13828	11.108163724658	2820
2	13847	11.112931777798	2961
2	13866	11.122003724658	3102
2	13885	11.126771777798	3243
2	13904	11.135843724658	3384
2	13923	11.140611777798	3525
2	13942	11.149683724658	3666
2	13999	11.154451777798	3807
2	14010	11.163523724658	3948
2	14033	11.168291777798	4089
2	14077	11.177363724658	4230
2	14096	11.182131777798	4371
2	14115	11.191203724658	4512
2	14134	11.195971777798	4653
2	14668	11.602803724658	4794
2	14676	11.602912534095	4935
2	14703	11.616752534095	5076
2	14722	11.630592534095	5217
2	15305	12.138202066244	5358
2	15369	12.152803724658	5499
2	15835	12.647501383394	5640
2	16507	13.183661383394	5781
2	16526	13.197501383394	5922
2	16703	13.238202066244	6063
2	16767	13.252803724658	6204
2	18074	14.338202066244	6345
2	18138	14.352803724658	6486
2	19358	15.438202066244	6627
2	19422	15.452803724658	6768
2	20263	16.183661383394	6909
2	20277	16.197501383394	7050
2	20344	16.211341383394	7191
2	20725	16.538202066244	7332
2	20791	16.552803724658	7473
2	21011	16.733661383394	7614
2	22085	17.638202066244	7755
2	22202	17.667603724658	7896
2	22415	17.833661383394	8037
2	22841	18.188202066244	8178
2	22919	18.202803724658	8319
2	23127	18.383661383394	8460
2	24205	19.288202066244	8601
2	24283	19.302803724658	8742
2	24496	19.483661383394	8883
2	25613	20.402803724658	9024
2	25798	20.583661383394	9165
2	26869	21.502803724658	9306
2	27100	21.733626728067	9447
2	27119	21.747466728067	9588
2	27744	22.283626728067	9729
2	28220	22.607443724658	9870
2	28367	22.733661383394	10011
2	28386	22.747501383394	10152
2	28951	23.152803724658	10293
2	29102	23.283661383394	10434
2	29230	23.383626728067	10575
2	30310	24.252803724658	10716
2	30461	24.383661383394	10857
2	30589	24.483626728067	10998
2	31589	25.352803724658	11139
2	32229	25.983661383394	11280
2	32360	26.083626728067	11421
2	32379	26.097466728067	11562
2	32905	26.452803724658	11703
2	32997	26.533661383394	11844
2	33125	26.633626728067	11985
2	33803	27.183626728067	12126
2	34298	27.552803724658	12267
2	34390	27.633661383394	12408
2	35066	28.183661383394	12549
2	35194	28.283626728067	12690
2	35694	28.652803724658	12831
2	36367	29.202803724658	12972
2	36447	29.283661383394	13113
2	36575	29.383626728067	13254
2	37724	30.302803724658	13395
2	37888	30.483626728067	13536
2	38979	31.402803724658	13677
2	39023	31.433661383394	13818
2	39218	31.583626728067	13959
2	39695	31.983661383394	14100
2	40311	32.502803724658	14241
2	40949	33.083661383394	14382
2	41096	33.197466728067	14523
2	41641	33.602803724658	14664
2	41683	33.633661383394	14805
2	41811	33.733626728067	14946
2	42354	34.152803724658	15087
2	42396	34.183661383394	15228
2	42524	34.283626728067	15369
2	43731	35.252803724658	15510
2	43773	35.283661383394	15651
2	43901	35.383626728067	15792
2	45136	36.352803724658	15933
2	45178	36.383661383394	16074
2	45329	36.493584192201	16215
2	46490	37.452803724658	16356
2	47208	38.083626728067	16497
2	47820	38.552803724658	16638
2	49066	39.652803724658	16779
2	49160	39.733626728067	16920
2	49179	39.747466728067	17061
2	49744	40.193598604152	17202
2	49763	40.198163724658	17343
2	49839	40.207438604152	17484
2	49858	40.221278604152	17625
2	49877	40.235118604152	17766
2	49966	40.283626728067	17907
2	51196	41.302803724658	18048
2	51276	41.383626728067	18189
2	52116	42.083661383394	18330
2	52543	42.402803724658	18471
2	52646	42.483626728067	18612
2	52845	42.633661383394	18753
2	53518	43.183661383394	18894
2	53931	43.502803724658	19035
2	54779	44.283661383394	19176
2	55192	44.602803724658	19317
2	55559	44.933626728067	19458
2	55578	44.947466728067	19599
2	55909	45.152803724658	19740
2	56205	45.383661383394	19881
2	56333	45.483626728067	20022
2	57311	46.252803724658	20163
2	58328	47.133626728067	20304
2	58347	47.147466728067	20445
2	58664	47.352803724658	20586
2	59460	48.083661383394	20727
2	59479	48.097501383394	20868
2	59965	48.452803724658	21009
2	60146	48.633661383394	21150
2	60778	49.183661383394	21291
2	61250	49.552803724658	21432
2	61558	49.833626728067	21573
2	61577	49.847466728067	21714
3	12708	10.502912534095	141
3	12727	10.516752534095	282
3	12746	10.530592534095	423
3	12765	10.544432534095	564
3	12820	10.558272534095	705
3	12834	10.572112534095	846
3	12848	10.585952534095	987
3	12867	10.599792534095	1128
3	12936	10.613632534095	1269
3	13578	11.052803724658	1410
3	13597	11.057571777798	1551
3	13619	11.066643724658	1692
3	13627	11.066752534095	1833
3	13646	11.071411777798	1974
3	13676	11.080483724658	2115
3	13695	11.085251777798	2256
3	13717	11.094323724658	2397
3	13725	11.094432534095	2538
3	13744	11.099091777798	2679
3	13828	11.108163724658	2820
3	13847	11.112931777798	2961
3	13866	11.122003724658	3102
3	13885	11.126771777798	3243
3	13904	11.135843724658	3384
3	13923	11.140611777798	3525
3	13942	11.149683724658	3666
3	13999	11.154451777798	3807
3	14010	11.163523724658	3948
3	14033	11.168291777798	4089
3	14077	11.177363724658	4230
3	14096	11.182131777798	4371
3	14115	11.191203724658	4512
3	14134	11.195971777798	4653
3	14668	11.602803724658	4794
3	14676	11.602912534095	4935
3	14703	11.616752534095	5076
3	14722	11.630592534095	5217
3	15305	12.138202066244	5358
3	15369	12.152803724658	5499
3	15835	12.647501383394	5640
3	16507	13.183661383394	5781
3	16526	13.197501383394	5922
3	16703	13.238202066244	6063
3	16767	13.252803724658	6204
3	18074	14.338202066244	6345
3	18138	14.352803724658	6486
3	19358	15.438202066244	6627
3	19422	15.452803724658	6768
3	20263	16.183661383394	6909
3	20277	16.197501383394	7050
3	20344	16.211341383394	7191
3	20725	16.538202066244	7332
3	20791	16.552803724658	7473
3	21011	16.733661383394	7614
3	22085	17.638202066244	7755
3	22202	17.667603724658	7896
3	22415	17.833661383394	8037
3	22841	18.188202066244	8178
3	22919	18.202803724658	8319
3	23127	18.383661383394	8460
3	24205	19.288202066244	8601
3	24283	19.302803724658	8742
3	24496	19.483661383394	8883
3	25613	20.402803724658	9024
3	25798	20.583661383394	9165
3	26869	21.502803724658	9306
3	27100	21.733626728067	9447
3	27119	21.747466728067	9588
3	27744	22.283626728067	9729
3	28220	22.607443724658	9870
3	28367	22.733661383394	10011
3	28386	22.747501383394	10152
3	28951	23.152803724658	10293
3	29102	23.283661383394	10434
3	29230	23.383626728067	10575
3	30310	24.252803724658	10716
3	30461	24.383661383394	10857
3	30589	24.483626728067	10998
3	31589	25.352803724658	11139
3	32229	25.983661383394	11280
3	32360	26.083626728067	11421
3	32379	26.097466728067	11562
3	32905	26.452803724658	11703
3	32997	26.533661383394	11844
3	33125	26.633626728067	11985
3	33803	27.183626728067	12126
3	34298	27.552803724658	12267
3	34390	27.633661383394	12408
3	35066	28.183661383394	12549
3	35194	28.283626728067	12690
3	35694	28.652803724658	12831
3	36367	29.202803724658	12972
3	36447	29.283661383394	13113
3	36575	29.383626728067	13254
3	37724	30.302803724658	13395
3	37888	30.483626728067	13536
3	38979	31.402803724658	13677
3	39023	31.433661383394	13818
3	39218	31.583626728067	13959
3	39695	31.983661383394	14100
3	40311	32.502803724658	14241
3	40949	33.083661383394	14382
3	41096	33.197466728067	14523
3	41641	33.602803724658	14664
3	41683	33.633661383394	14805
3	41811	33.733626728067	14946
3	42354	34.152803724658	15087
3	42396	34.183661383394	15228
3	42524	34.283626728067	15369
3	43731	35.252803724658	15510
3	43773	35.283661383394	15651
3	43901	35.383626728067	15792
3	45136	36.352803724658	15933
3	45178	36.383661383394	16074
3	45329	36.493584192201	16215
3	46490	37.452803724658	16356
3	47208	38.083626728067	16497
3	47820	38.552803724658	16638
3	49066	39.652803724658	16779
3	49160	39.733626728067	16920
3	49179	39.747466728067	17061
3	49744	40.193598604152	17202
3	49763	40.198163724658	17343
3	49839	40.207438604152	17484
3	49858	40.221278604152	17625
3	49877	40.235118604152	17766
3	49966	40.283626728067	17907
3	51196	41.302803724658	18048
3	51276	41.383626728067	18189
3	52116	42.083661383394	18330
3	52543	42.402803724658	18471
3	52646	42.483626728067	18612
3	52845	42.633661383394	18753
3	53518	43.183661383394	18894
3	53931	43.502803724658	19035
3	54779	44.283661383394	19176
3	55192	44.602803724658	19317
3	55559	44.933626728067	19458
3	55578	44.947466728067	19599
3	55909	45.152803724658	19740
3	56205	45.383661383394	19881
3	56333	45.483626728067	20022
3	57311	46.252803724658	20163
3	58328	47.133626728067	20304
3	58347	47.147466728067	20445
3	58664	47.352803724658	20586
3	59460	48.083661383394	20727
3	59479	48.097501383394	20868
3	59965	48.452803724658	21009
3	60146	48.633661383394	21150
3	60778	49.183661383394	21291
3	61250	49.552803724658	21432
3	61558	49.833626728067	21573
3	61577	49.847466728067	21714

