version 2
run Moves3-2-20190628-01:25:37-14229
attr configname Moves3
attr datetime 20190628-01:25:37
attr experiment Moves3
attr inifile TormV1.ini
attr iterationvars $0=4
attr iterationvarsf 4-
attr measurement $0=4
attr network OPSLiteNetworkTormV1
attr processid 14229
attr repetition 0
attr replication #0
attr resultdir results
attr runnumber 2
attr seedset 2
param **.mobility.traceFile "\"paths/Moves3.movements\""
param **.numNodes 4
param **.application.usedRNG 1
param **.application.dataGenerationInterval 11s
param **.application.dataSizeInBytes 10
param **.application.ttl 999999s
param **application.destinationAddr "\"02:00:00:00:00:03\""
param **.forwarding.maximumCacheSize 500byte
param **.forwarding.maximumHopCount 25
param **.forwarding.useTTL false
param **.neighboring.antiEntropyInterval 1s
param **.neighboring.maximumRandomBackoffDuration 1s
param **neighboring.usedRNG 2
param **.neighboring.GWAddr "\"02:00:00:00:00:03\""
param **.storage.maximumCacheSize 500byte
param **.wirelessIfc.wirelessRange 15m
param **.wirelessIfc.neighbourScanInterval 100ms
param **.wirelessIfc.bandwidthBitRate 100000bps
param **.wirelessIfc.wirelessHeaderSize 16byte
param **.mobilityType "\"BonnMotionMobility\""
param **.mobility.traceFile "\"paths/Moves2.movements\""
param **.mobility.nodeId -1

vector 0 OPSLiteNetworkTormV1 nonLikedDataBytesReceivableByAllNodesSum:vector ETV
attr source sum(nonLikedDataBytesReceivableByAllNodes)
vector 1 OPSLiteNetworkTormV1 deliveryRatio:vector ETV
attr source sum(totalDataBytesReceived)/sum(totalDataBytesReceivableByAllNodes)
vector 2 OPSLiteNetworkTormV1 neighbourhoodSize:vector ETV
attr source neighbourhoodSize
vector 3 OPSLiteNetworkTormV1 dataBytesReceivedSum:vector ETV
attr source sum(dataBytesReceived)
vector 4 OPSLiteNetworkTormV1 totalBytesReceivedSum:vector ETV
attr source sum(totalBytesReceived)
vector 5 OPSLiteNetworkTormV1 nonLikedDataBytesReceivedSum:vector ETV
attr source sum(nonLikedDataBytesReceived)
vector 6 OPSLiteNetworkTormV1 dataDelay:vector ETV
attr source dataDelay
vector 7 OPSLiteNetworkTormV1 duplicateDataBytesReceivedSum:vector ETV
attr source sum(duplicateDataBytesReceived)
0	13	0.1	40
1	13	0.1	-nan
1	256	1.21384	0.25
1	512	2.32128	0.5
1	758	3.4172	0.75
2	14	0.1	1
2	15	0.1	2
2	16	0.1	2
2	17	0.1	1
2	28	0.2	1
2	29	0.2	2
2	30	0.2	2
2	31	0.2	1
2	41	0.3	1
2	42	0.3	2
2	43	0.3	2
2	44	0.3	1
2	54	0.4	1
2	55	0.4	2
2	56	0.4	2
2	57	0.4	1
2	67	0.5	1
2	68	0.5	2
2	69	0.5	2
2	70	0.5	1
2	80	0.6	1
2	81	0.6	2
2	82	0.6	2
2	83	0.6	1
2	93	0.7	1
2	94	0.7	2
2	95	0.7	2
2	96	0.7	1
2	106	0.8	1
2	107	0.8	2
2	108	0.8	2
2	109	0.8	1
2	119	0.9	1
2	120	0.9	2
2	121	0.9	2
2	122	0.9	1
2	132	1	1
2	133	1	2
2	134	1	2
2	135	1	1
2	145	1.1	1
2	146	1.1	2
2	147	1.1	2
2	148	1.1	1
2	158	1.2	1
2	159	1.2	2
2	160	1.2	2
2	161	1.2	1
2	262	1.3	1
2	263	1.3	2
2	264	1.3	2
2	265	1.3	1
2	275	1.4	1
2	276	1.4	2
2	277	1.4	2
2	278	1.4	1
2	288	1.5	1
2	289	1.5	2
2	290	1.5	2
2	291	1.5	1
2	301	1.6	1
2	302	1.6	2
2	303	1.6	2
2	304	1.6	1
2	314	1.7	1
2	315	1.7	2
2	316	1.7	2
2	317	1.7	1
2	327	1.8	1
2	328	1.8	2
2	329	1.8	2
2	330	1.8	1
2	340	1.9	1
2	341	1.9	2
2	342	1.9	2
2	343	1.9	1
2	353	2	1
2	354	2	2
2	355	2	2
2	356	2	1
2	366	2.1	1
2	367	2.1	2
2	368	2.1	2
2	369	2.1	1
2	379	2.2	1
2	380	2.2	2
2	381	2.2	2
2	382	2.2	1
2	392	2.3	1
2	393	2.3	2
2	394	2.3	2
2	395	2.3	1
2	522	2.4	1
2	523	2.4	2
2	524	2.4	2
2	525	2.4	1
2	535	2.5	1
2	536	2.5	2
2	537	2.5	2
2	538	2.5	1
2	548	2.6	1
2	549	2.6	2
2	550	2.6	2
2	551	2.6	1
2	561	2.7	1
2	562	2.7	2
2	563	2.7	2
2	564	2.7	1
2	574	2.8	1
2	575	2.8	2
2	576	2.8	2
2	577	2.8	1
2	587	2.9	1
2	588	2.9	2
2	589	2.9	2
2	590	2.9	1
2	600	3	1
2	601	3	2
2	602	3	2
2	603	3	1
2	613	3.1	1
2	614	3.1	2
2	615	3.1	2
2	616	3.1	1
2	626	3.2	1
2	627	3.2	2
2	628	3.2	2
2	629	3.2	1
2	639	3.3	1
2	640	3.3	2
2	641	3.3	2
2	642	3.3	1
2	652	3.4	1
2	653	3.4	2
2	654	3.4	2
2	655	3.4	1
2	782	3.5	1
2	783	3.5	2
2	784	3.5	2
2	785	3.5	1
2	795	3.6	1
2	796	3.6	2
2	797	3.6	2
2	798	3.6	1
2	808	3.7	1
2	809	3.7	2
2	810	3.7	2
2	811	3.7	1
2	821	3.8	1
2	822	3.8	2
2	823	3.8	2
2	824	3.8	1
2	834	3.9	1
2	835	3.9	2
2	836	3.9	2
2	837	3.9	1
2	847	4	0
2	848	4	2
2	849	4	2
2	850	4	2
2	858	4.1	0
2	859	4.1	2
2	860	4.1	2
2	861	4.1	2
2	868	4.2	0
2	869	4.2	2
2	870	4.2	2
2	871	4.2	2
2	878	4.3	0
2	879	4.3	2
2	880	4.3	2
2	881	4.3	2
2	888	4.4	0
2	889	4.4	2
2	890	4.4	2
2	891	4.4	2
2	898	4.5	0
2	899	4.5	2
2	900	4.5	2
2	901	4.5	2
2	999	4.6	0
2	1000	4.6	2
2	1001	4.6	2
2	1002	4.6	2
2	1009	4.7	0
2	1010	4.7	2
2	1011	4.7	2
2	1012	4.7	2
2	1019	4.8	0
2	1020	4.8	2
2	1021	4.8	2
2	1022	4.8	2
2	1029	4.9	0
2	1030	4.9	2
2	1031	4.9	2
2	1032	4.9	2
2	1039	5	0
2	1040	5	2
2	1041	5	2
2	1042	5	2
2	1049	5.1	0
2	1050	5.1	2
2	1051	5.1	2
2	1052	5.1	2
2	1085	5.2	0
2	1086	5.2	2
2	1087	5.2	2
2	1088	5.2	2
2	1095	5.3	0
2	1096	5.3	2
2	1097	5.3	2
2	1098	5.3	2
2	1105	5.4	0
2	1106	5.4	2
2	1107	5.4	2
2	1108	5.4	2
2	1115	5.5	0
2	1116	5.5	2
2	1117	5.5	2
2	1118	5.5	2
2	1125	5.6	0
2	1126	5.6	2
2	1127	5.6	2
2	1128	5.6	2
2	1226	5.7	0
2	1227	5.7	2
2	1228	5.7	2
2	1229	5.7	2
2	1236	5.8	0
2	1237	5.8	2
2	1238	5.8	2
2	1239	5.8	2
2	1246	5.9	0
2	1247	5.9	2
2	1248	5.9	2
2	1249	5.9	2
2	1256	6	0
2	1257	6	2
2	1258	6	2
2	1259	6	2
2	1266	6.1	0
2	1267	6.1	2
2	1268	6.1	2
2	1269	6.1	2
2	1276	6.2	0
2	1277	6.2	2
2	1278	6.2	2
2	1279	6.2	2
2	1312	6.3	0
2	1313	6.3	2
2	1314	6.3	2
2	1315	6.3	2
2	1322	6.4	0
2	1323	6.4	2
2	1324	6.4	2
2	1325	6.4	2
2	1332	6.5	0
2	1333	6.5	2
2	1334	6.5	2
2	1335	6.5	2
2	1342	6.6	0
2	1343	6.6	2
2	1344	6.6	2
2	1345	6.6	2
2	1352	6.7	0
2	1353	6.7	2
2	1354	6.7	2
2	1355	6.7	2
2	1453	6.8	0
2	1454	6.8	2
2	1455	6.8	2
2	1456	6.8	2
2	1463	6.9	0
2	1464	6.9	2
2	1465	6.9	2
2	1466	6.9	2
2	1473	7	0
2	1474	7	2
2	1475	7	2
2	1476	7	2
2	1483	7.1	0
2	1484	7.1	2
2	1485	7.1	2
2	1486	7.1	2
2	1493	7.2	0
2	1494	7.2	2
2	1495	7.2	2
2	1496	7.2	2
2	1503	7.3	0
2	1504	7.3	2
2	1505	7.3	2
2	1506	7.3	2
2	1539	7.4	0
2	1540	7.4	2
2	1541	7.4	2
2	1542	7.4	2
2	1549	7.5	0
2	1550	7.5	2
2	1551	7.5	2
2	1552	7.5	2
2	1559	7.6	0
2	1560	7.6	2
2	1561	7.6	2
2	1562	7.6	2
2	1569	7.7	0
2	1570	7.7	2
2	1571	7.7	2
2	1572	7.7	2
2	1579	7.8	0
2	1580	7.8	2
2	1581	7.8	2
2	1582	7.8	2
2	1680	7.9	0
2	1681	7.9	2
2	1682	7.9	2
2	1683	7.9	2
2	1690	8	0
2	1691	8	2
2	1692	8	2
2	1693	8	2
2	1700	8.1	0
2	1701	8.1	2
2	1702	8.1	2
2	1703	8.1	2
2	1710	8.2	0
2	1711	8.2	2
2	1712	8.2	2
2	1713	8.2	2
2	1720	8.3	0
2	1721	8.3	2
2	1722	8.3	2
2	1723	8.3	2
2	1730	8.4	0
2	1731	8.4	2
2	1732	8.4	2
2	1733	8.4	2
2	1766	8.5	0
2	1767	8.5	2
2	1768	8.5	2
2	1769	8.5	2
2	1776	8.6	0
2	1777	8.6	2
2	1778	8.6	2
2	1779	8.6	2
2	1786	8.7	0
2	1787	8.7	2
2	1788	8.7	2
2	1789	8.7	2
2	1796	8.8	0
2	1797	8.8	2
2	1798	8.8	2
2	1799	8.8	2
2	1806	8.9	0
2	1807	8.9	2
2	1808	8.9	2
2	1809	8.9	2
2	1907	9	0
2	1908	9	2
2	1909	9	2
2	1910	9	2
2	1917	9.1	0
2	1918	9.1	2
2	1919	9.1	2
2	1920	9.1	2
2	1927	9.2	0
2	1928	9.2	2
2	1929	9.2	2
2	1930	9.2	2
2	1937	9.3	0
2	1938	9.3	2
2	1939	9.3	2
2	1940	9.3	2
2	1947	9.4	0
2	1948	9.4	2
2	1949	9.4	2
2	1950	9.4	2
2	1957	9.5	0
2	1958	9.5	2
2	1959	9.5	2
2	1960	9.5	2
2	1993	9.6	0
2	1994	9.6	2
2	1995	9.6	2
2	1996	9.6	2
2	2003	9.7	0
2	2004	9.7	2
2	2005	9.7	2
2	2006	9.7	2
2	2013	9.8	0
2	2014	9.8	2
2	2015	9.8	2
2	2016	9.8	2
2	2023	9.9	0
2	2024	9.9	2
2	2025	9.9	2
2	2026	9.9	2
2	2033	10	0
2	2034	10	2
2	2035	10	2
2	2036	10	2
2	2134	10.1	0
2	2135	10.1	2
2	2136	10.1	2
2	2137	10.1	2
2	2144	10.2	0
2	2145	10.2	2
2	2146	10.2	2
2	2147	10.2	2
2	2154	10.3	0
2	2155	10.3	2
2	2156	10.3	2
2	2157	10.3	2
2	2164	10.4	0
2	2165	10.4	2
2	2166	10.4	2
2	2167	10.4	2
2	2174	10.5	0
2	2175	10.5	2
2	2176	10.5	2
2	2177	10.5	2
2	2184	10.6	0
2	2185	10.6	2
2	2186	10.6	2
2	2187	10.6	2
2	2220	10.7	0
2	2221	10.7	2
2	2222	10.7	2
2	2223	10.7	2
2	2230	10.8	0
2	2231	10.8	2
2	2232	10.8	2
2	2233	10.8	2
2	2240	10.9	0
2	2241	10.9	2
2	2242	10.9	2
2	2243	10.9	2
2	2250	11	0
2	2251	11	2
2	2252	11	2
2	2253	11	2
3	254	1.21384	35
3	492	2.31384	70
3	499	2.3172	105
3	510	2.32128	140
3	755	3.4172	175
3	756	3.4172	210
3	770	3.42128	245
3	969	4.51384	280
3	976	4.5172	315
3	987	4.52128	350
3	1196	5.61384	385
3	1203	5.6172	420
3	1214	5.62128	455
3	1423	6.71384	490
3	1430	6.7172	525
3	1441	6.72128	560
3	1650	7.81384	595
3	1657	7.8172	630
3	1668	7.82128	665
3	1877	8.91384	700
3	1884	8.9172	735
3	1895	8.92128	770
3	2104	10.01384	805
3	2111	10.0172	840
3	2122	10.02128	875
4	254	1.21384	35
4	492	2.31384	70
4	499	2.3172	105
4	510	2.32128	140
4	755	3.4172	175
4	756	3.4172	210
4	770	3.42128	245
4	969	4.51384	280
4	976	4.5172	315
4	987	4.52128	350
4	1196	5.61384	385
4	1203	5.6172	420
4	1214	5.62128	455
4	1423	6.71384	490
4	1430	6.7172	525
4	1441	6.72128	560
4	1650	7.81384	595
4	1657	7.8172	630
4	1668	7.82128	665
4	1877	8.91384	700
4	1884	8.9172	735
4	1895	8.92128	770
4	2104	10.01384	805
4	2111	10.0172	840
4	2122	10.02128	875
5	256	1.21384	10
5	512	2.32128	20
5	758	3.4172	30
6	256	1.21384	1.11384
6	512	2.32128	2.22128
6	758	3.4172	3.3172
7	494	2.31384	10
7	501	2.3172	20
7	760	3.4172	30
7	772	3.42128	40
7	971	4.51384	50
7	978	4.5172	60
7	989	4.52128	70
7	1198	5.61384	80
7	1205	5.6172	90
7	1216	5.62128	100
7	1425	6.71384	110
7	1432	6.7172	120
7	1443	6.72128	130
7	1652	7.81384	140
7	1659	7.8172	150
7	1670	7.82128	160
7	1879	8.91384	170
7	1886	8.9172	180
7	1897	8.92128	190
7	2106	10.01384	200
7	2113	10.0172	210
7	2124	10.02128	220

