version 2
run Moves5-0-20190726-11:13:49-7131
attr configname Moves5
attr datetime 20190726-11:13:49
attr experiment Moves5
attr inifile TormV1.ini
attr iterationvars $0=2
attr iterationvarsf 2-
attr measurement $0=2
attr network NetworkTormV1
attr processid 7131
attr repetition 0
attr replication #0
attr resultdir results
attr runnumber 0
attr seedset 0
param **.mobility.traceFile "\"paths/Moves5.movements\""
param **.numNodes 2
param **.application.usedRNG 1
param **.application.dataGenerationInterval 1s
param **.application.dataSizeInBytes 10
param **.application.ttl 999999s
param **.application.nodeGenMsg 0
param **application.destinationAddr "\"02:00:00:00:00:03\""
param **.forwarding.maximumCacheSize 500byte
param **.forwarding.maximumHopCount 25
param **.forwarding.useTTL false
param **.neighboring.antiEntropyInterval 1s
param **.neighboring.maximumRandomBackoffDuration 1s
param **neighboring.usedRNG 2
param **.neighboring.GWAddr "\"02:00:00:00:00:03\""
param **.neighboring.sendWifiFirst true
param **.storage.maximumCacheSize 500byte
param **.wirelessIfc.wirelessRange 15m
param **.wirelessIfc.neighbourScanInterval 100ms
param **.wirelessIfc.bandwidthBitRate 100000bps
param **.wirelessIfc.wirelessHeaderSize 32byte
param **.wirelessIfc.minSSI -90
param **.bluetoothIfc.wirelessRange 15m
param **.bluetoothIfc.neighbourScanInterval 100ms
param **.bluetoothIfc.bandwidthBitRate 100000bps
param **.bluetoothIfc.wirelessHeaderSize 16byte
param **.bluetoothIfc.minSSI -90
param **.mobilityType "\"BonnMotionMobility\""
param **.mobility.traceFile "\"paths/Moves2.movements\""
param **.mobility.nodeId -1

vector 0 NetworkTormV1 nonLikedDataBytesReceivableByAllNodesSum:vector ETV
attr source sum(nonLikedDataBytesReceivableByAllNodes)
vector 1 NetworkTormV1 deliveryRatio:vector ETV
attr source sum(totalDataBytesReceived)/sum(totalDataBytesReceivableByAllNodes)
vector 2 NetworkTormV1 neighbourhoodSize:vector ETV
attr source neighbourhoodSize
vector 3 NetworkTormV1 dataBytesReceivedSum:vector ETV
attr source sum(dataBytesReceived)
vector 4 NetworkTormV1 totalBytesReceivedSum:vector ETV
attr source sum(totalBytesReceived)
vector 5 NetworkTormV1 nonLikedDataBytesReceivedSum:vector ETV
attr source sum(nonLikedDataBytesReceived)
vector 6 NetworkTormV1 dataDelay:vector ETV
attr source dataDelay
vector 7 NetworkTormV1 duplicateDataBytesReceivedSum:vector ETV
attr source sum(duplicateDataBytesReceived)
vector 8 NetworkTormV1 likedDataBytesReceivableByAllNodesSum:vector ETV
attr source sum(likedDataBytesReceivableByAllNodes)
vector 9 NetworkTormV1 likedDataBytesReceivedSum:vector ETV
attr source sum(likedDataBytesReceived)
0	7	0.1	20
0	139	1.1	40
0	323	2.1	60
0	546	3.1	80
0	1070	5.1	100
0	1198	7.1	120
0	1302	9.1	140
0	1412	10.1	160
0	1768	11.1	180
0	2215	12.1	200
0	2652	13.1	220
0	2810	14.1	240
1	7	0.1	-nan
1	139	1.1	-nan
1	202	1.21456	0.25
1	213	1.22	0.5
1	323	2.1	0.33333333333333
1	441	2.32544	0.5
1	546	3.1	0.375
1	695	3.43088	0.5
1	795	4.1	0.4
1	975	4.53632	0.5
1	1070	5.1	0.41666666666667
1	1146	6.1	0.35714285714286
1	1198	7.1	0.3125
1	1250	8.1	0.27777777777778
1	1302	9.1	0.25
1	1412	10.1	0.22727272727273
1	1651	10.84176	0.27272727272727
1	1666	10.8472	0.31818181818182
1	1681	10.85264	0.36363636363636
1	1696	10.85808	0.40909090909091
1	1707	10.86352	0.45454545454545
1	1718	10.86896	0.5
1	1768	11.1	0.45833333333333
1	2117	11.9744	0.5
1	2215	12.1	0.46153846153846
1	2594	13.07984	0.5
1	2652	13.1	0.46428571428571
1	2810	14.1	0.43333333333333
1	3101	14.18528	0.46666666666667
1	3116	14.19072	0.5
2	8	0.1	1
2	9	0.1	1
2	10	0.1	1
2	11	0.1	1
2	22	0.2	1
2	23	0.2	1
2	24	0.2	1
2	25	0.2	1
2	35	0.3	1
2	36	0.3	1
2	37	0.3	1
2	38	0.3	1
2	48	0.4	1
2	49	0.4	1
2	50	0.4	1
2	51	0.4	1
2	61	0.5	1
2	62	0.5	1
2	63	0.5	1
2	64	0.5	1
2	74	0.6	1
2	75	0.6	1
2	76	0.6	1
2	77	0.6	1
2	87	0.7	1
2	88	0.7	1
2	89	0.7	1
2	90	0.7	1
2	100	0.8	1
2	101	0.8	1
2	102	0.8	1
2	103	0.8	1
2	113	0.9	1
2	114	0.9	1
2	115	0.9	1
2	116	0.9	1
2	126	1	1
2	127	1	1
2	128	1	1
2	129	1	1
2	140	1.1	1
2	141	1.1	1
2	142	1.1	1
2	143	1.1	1
2	154	1.2	1
2	155	1.2	1
2	156	1.2	1
2	157	1.2	1
2	219	1.3	1
2	220	1.3	1
2	221	1.3	1
2	222	1.3	1
2	232	1.4	1
2	233	1.4	1
2	234	1.4	1
2	235	1.4	1
2	245	1.5	1
2	246	1.5	1
2	247	1.5	1
2	248	1.5	1
2	258	1.6	1
2	259	1.6	1
2	260	1.6	1
2	261	1.6	1
2	271	1.7	1
2	272	1.7	1
2	273	1.7	1
2	274	1.7	1
2	284	1.8	1
2	285	1.8	1
2	286	1.8	1
2	287	1.8	1
2	297	1.9	1
2	298	1.9	1
2	299	1.9	1
2	300	1.9	1
2	310	2	1
2	311	2	1
2	312	2	1
2	313	2	1
2	324	2.1	1
2	325	2.1	1
2	326	2.1	1
2	327	2.1	1
2	338	2.2	1
2	339	2.2	1
2	340	2.2	1
2	341	2.2	1
2	351	2.3	1
2	352	2.3	1
2	353	2.3	1
2	354	2.3	1
2	455	2.4	1
2	456	2.4	1
2	457	2.4	1
2	458	2.4	1
2	468	2.5	1
2	469	2.5	1
2	470	2.5	1
2	471	2.5	1
2	481	2.6	1
2	482	2.6	1
2	483	2.6	1
2	484	2.6	1
2	494	2.7	1
2	495	2.7	1
2	496	2.7	1
2	497	2.7	1
2	507	2.8	1
2	508	2.8	1
2	509	2.8	1
2	510	2.8	1
2	520	2.9	1
2	521	2.9	1
2	522	2.9	1
2	523	2.9	1
2	533	3	1
2	534	3	1
2	535	3	1
2	536	3	1
2	547	3.1	1
2	548	3.1	1
2	549	3.1	1
2	550	3.1	1
2	561	3.2	1
2	562	3.2	1
2	563	3.2	1
2	564	3.2	1
2	574	3.3	1
2	575	3.3	1
2	576	3.3	1
2	577	3.3	1
2	587	3.4	1
2	588	3.4	1
2	589	3.4	1
2	590	3.4	1
2	717	3.5	1
2	718	3.5	1
2	719	3.5	1
2	720	3.5	1
2	730	3.6	1
2	731	3.6	1
2	732	3.6	1
2	733	3.6	1
2	743	3.7	1
2	744	3.7	1
2	745	3.7	1
2	746	3.7	1
2	756	3.8	1
2	757	3.8	1
2	758	3.8	1
2	759	3.8	1
2	769	3.9	1
2	770	3.9	1
2	771	3.9	1
2	772	3.9	1
2	782	4	1
2	783	4	1
2	784	4	1
2	785	4	1
2	796	4.1	1
2	797	4.1	1
2	798	4.1	1
2	799	4.1	1
2	810	4.2	1
2	811	4.2	1
2	812	4.2	1
2	813	4.2	1
2	823	4.3	1
2	824	4.3	1
2	825	4.3	1
2	826	4.3	1
2	836	4.4	1
2	837	4.4	1
2	838	4.4	1
2	839	4.4	1
2	849	4.5	1
2	850	4.5	1
2	851	4.5	1
2	852	4.5	1
2	1005	4.6	1
2	1006	4.6	1
2	1007	4.6	1
2	1008	4.6	1
2	1018	4.7	1
2	1019	4.7	1
2	1020	4.7	1
2	1021	4.7	1
2	1031	4.8	1
2	1032	4.8	1
2	1033	4.8	1
2	1034	4.8	1
2	1044	4.9	1
2	1045	4.9	1
2	1046	4.9	1
2	1047	4.9	1
2	1057	5	1
2	1058	5	1
2	1059	5	1
2	1060	5	1
2	1071	5.1	1
2	1072	5.1	1
2	1073	5.1	1
2	1074	5.1	1
2	1085	5.2	1
2	1086	5.2	1
2	1087	5.2	1
2	1088	5.2	1
2	1098	5.3	1
2	1099	5.3	1
2	1100	5.3	1
2	1101	5.3	1
2	1111	5.4	0
2	1112	5.4	0
2	1113	5.4	0
2	1114	5.4	0
2	1116	5.5	0
2	1117	5.5	0
2	1118	5.5	0
2	1119	5.5	0
2	1121	5.6	0
2	1122	5.6	0
2	1123	5.6	0
2	1124	5.6	0
2	1126	5.7	0
2	1127	5.7	0
2	1128	5.7	0
2	1129	5.7	0
2	1131	5.8	0
2	1132	5.8	0
2	1133	5.8	0
2	1134	5.8	0
2	1136	5.9	0
2	1137	5.9	0
2	1138	5.9	0
2	1139	5.9	0
2	1141	6	0
2	1142	6	0
2	1143	6	0
2	1144	6	0
2	1147	6.1	0
2	1148	6.1	0
2	1149	6.1	0
2	1150	6.1	0
2	1153	6.2	0
2	1154	6.2	0
2	1155	6.2	0
2	1156	6.2	0
2	1158	6.3	0
2	1159	6.3	0
2	1160	6.3	0
2	1161	6.3	0
2	1163	6.4	0
2	1164	6.4	0
2	1165	6.4	0
2	1166	6.4	0
2	1168	6.5	0
2	1169	6.5	0
2	1170	6.5	0
2	1171	6.5	0
2	1173	6.6	0
2	1174	6.6	0
2	1175	6.6	0
2	1176	6.6	0
2	1178	6.7	0
2	1179	6.7	0
2	1180	6.7	0
2	1181	6.7	0
2	1183	6.8	0
2	1184	6.8	0
2	1185	6.8	0
2	1186	6.8	0
2	1188	6.9	0
2	1189	6.9	0
2	1190	6.9	0
2	1191	6.9	0
2	1193	7	0
2	1194	7	0
2	1195	7	0
2	1196	7	0
2	1199	7.1	0
2	1200	7.1	0
2	1201	7.1	0
2	1202	7.1	0
2	1205	7.2	0
2	1206	7.2	0
2	1207	7.2	0
2	1208	7.2	0
2	1210	7.3	0
2	1211	7.3	0
2	1212	7.3	0
2	1213	7.3	0
2	1215	7.4	0
2	1216	7.4	0
2	1217	7.4	0
2	1218	7.4	0
2	1220	7.5	0
2	1221	7.5	0
2	1222	7.5	0
2	1223	7.5	0
2	1225	7.6	0
2	1226	7.6	0
2	1227	7.6	0
2	1228	7.6	0
2	1230	7.7	0
2	1231	7.7	0
2	1232	7.7	0
2	1233	7.7	0
2	1235	7.8	0
2	1236	7.8	0
2	1237	7.8	0
2	1238	7.8	0
2	1240	7.9	0
2	1241	7.9	0
2	1242	7.9	0
2	1243	7.9	0
2	1245	8	0
2	1246	8	0
2	1247	8	0
2	1248	8	0
2	1251	8.1	0
2	1252	8.1	0
2	1253	8.1	0
2	1254	8.1	0
2	1257	8.2	0
2	1258	8.2	0
2	1259	8.2	0
2	1260	8.2	0
2	1262	8.3	0
2	1263	8.3	0
2	1264	8.3	0
2	1265	8.3	0
2	1267	8.4	0
2	1268	8.4	0
2	1269	8.4	0
2	1270	8.4	0
2	1272	8.5	0
2	1273	8.5	0
2	1274	8.5	0
2	1275	8.5	0
2	1277	8.6	0
2	1278	8.6	0
2	1279	8.6	0
2	1280	8.6	0
2	1282	8.7	0
2	1283	8.7	0
2	1284	8.7	0
2	1285	8.7	0
2	1287	8.8	0
2	1288	8.8	0
2	1289	8.8	0
2	1290	8.8	0
2	1292	8.9	0
2	1293	8.9	0
2	1294	8.9	0
2	1295	8.9	0
2	1297	9	0
2	1298	9	0
2	1299	9	0
2	1300	9	0
2	1303	9.1	0
2	1304	9.1	0
2	1305	9.1	0
2	1306	9.1	0
2	1309	9.2	0
2	1310	9.2	0
2	1311	9.2	0
2	1312	9.2	0
2	1314	9.3	0
2	1315	9.3	0
2	1316	9.3	0
2	1317	9.3	0
2	1319	9.4	0
2	1320	9.4	0
2	1321	9.4	0
2	1322	9.4	0
2	1324	9.5	0
2	1325	9.5	0
2	1326	9.5	0
2	1327	9.5	0
2	1329	9.6	0
2	1330	9.6	0
2	1331	9.6	0
2	1332	9.6	0
2	1334	9.7	1
2	1335	9.7	1
2	1336	9.7	1
2	1337	9.7	1
2	1373	9.8	1
2	1374	9.8	1
2	1375	9.8	1
2	1376	9.8	1
2	1386	9.9	1
2	1387	9.9	1
2	1388	9.9	1
2	1389	9.9	1
2	1399	10	1
2	1400	10	1
2	1401	10	1
2	1402	10	1
2	1413	10.1	1
2	1414	10.1	1
2	1415	10.1	1
2	1416	10.1	1
2	1426	10.2	1
2	1427	10.2	1
2	1428	10.2	1
2	1429	10.2	1
2	1438	10.3	1
2	1439	10.3	1
2	1440	10.3	1
2	1441	10.3	1
2	1450	10.4	1
2	1451	10.4	1
2	1452	10.4	1
2	1453	10.4	1
2	1462	10.5	1
2	1463	10.5	1
2	1464	10.5	1
2	1465	10.5	1
2	1474	10.6	1
2	1475	10.6	1
2	1476	10.6	1
2	1477	10.6	1
2	1486	10.7	1
2	1487	10.7	1
2	1488	10.7	1
2	1489	10.7	1
2	1498	10.8	1
2	1499	10.8	1
2	1500	10.8	1
2	1501	10.8	1
2	1744	10.9	1
2	1745	10.9	1
2	1746	10.9	1
2	1747	10.9	1
2	1756	11	1
2	1757	11	1
2	1758	11	1
2	1759	11	1
2	1769	11.1	1
2	1770	11.1	1
2	1771	11.1	1
2	1772	11.1	1
2	1782	11.2	1
2	1783	11.2	1
2	1784	11.2	1
2	1785	11.2	1
2	1794	11.3	1
2	1795	11.3	1
2	1796	11.3	1
2	1797	11.3	1
2	1806	11.4	1
2	1807	11.4	1
2	1808	11.4	1
2	1809	11.4	1
2	1818	11.5	1
2	1819	11.5	1
2	1820	11.5	1
2	1821	11.5	1
2	1830	11.6	1
2	1831	11.6	1
2	1832	11.6	1
2	1833	11.6	1
2	1842	11.7	1
2	1843	11.7	1
2	1844	11.7	1
2	1845	11.7	1
2	1854	11.8	1
2	1855	11.8	1
2	1856	11.8	1
2	1857	11.8	1
2	1866	11.9	1
2	1867	11.9	1
2	1868	11.9	1
2	1869	11.9	1
2	2195	12	1
2	2196	12	1
2	2197	12	1
2	2198	12	1
2	2216	12.1	1
2	2217	12.1	1
2	2218	12.1	1
2	2219	12.1	1
2	2229	12.2	1
2	2230	12.2	1
2	2231	12.2	1
2	2232	12.2	1
2	2241	12.3	1
2	2242	12.3	1
2	2243	12.3	1
2	2244	12.3	1
2	2253	12.4	1
2	2254	12.4	1
2	2255	12.4	1
2	2256	12.4	1
2	2265	12.5	1
2	2266	12.5	1
2	2267	12.5	1
2	2268	12.5	1
2	2277	12.6	1
2	2278	12.6	1
2	2279	12.6	1
2	2280	12.6	1
2	2289	12.7	1
2	2290	12.7	1
2	2291	12.7	1
2	2292	12.7	1
2	2301	12.8	1
2	2302	12.8	1
2	2303	12.8	1
2	2304	12.8	1
2	2313	12.9	1
2	2314	12.9	1
2	2315	12.9	1
2	2316	12.9	1
2	2325	13	1
2	2326	13	1
2	2327	13	1
2	2328	13	1
2	2653	13.1	1
2	2654	13.1	1
2	2655	13.1	1
2	2656	13.1	1
2	2702	13.2	1
2	2703	13.2	1
2	2704	13.2	1
2	2705	13.2	1
2	2714	13.3	1
2	2715	13.3	1
2	2716	13.3	1
2	2717	13.3	1
2	2726	13.4	1
2	2727	13.4	1
2	2728	13.4	1
2	2729	13.4	1
2	2738	13.5	1
2	2739	13.5	1
2	2740	13.5	1
2	2741	13.5	1
2	2750	13.6	1
2	2751	13.6	1
2	2752	13.6	1
2	2753	13.6	1
2	2762	13.7	1
2	2763	13.7	1
2	2764	13.7	1
2	2765	13.7	1
2	2774	13.8	1
2	2775	13.8	1
2	2776	13.8	1
2	2777	13.8	1
2	2786	13.9	1
2	2787	13.9	1
2	2788	13.9	1
2	2789	13.9	1
2	2798	14	1
2	2799	14	1
2	2800	14	1
2	2801	14	1
2	2811	14.1	1
2	2812	14.1	1
2	2813	14.1	1
2	2814	14.1	1
2	3142	14.2	1
2	3143	14.2	1
2	3144	14.2	1
2	3145	14.2	1
2	3226	14.3	1
2	3227	14.3	1
2	3228	14.3	1
2	3229	14.3	1
2	3238	14.4	1
2	3239	14.4	1
2	3240	14.4	1
2	3241	14.4	1
2	3250	14.5	1
2	3251	14.5	1
2	3252	14.5	1
2	3253	14.5	1
2	3262	14.6	1
2	3263	14.6	1
2	3264	14.6	1
2	3265	14.6	1
2	3274	14.7	1
2	3275	14.7	1
2	3276	14.7	1
2	3277	14.7	1
2	3286	14.8	1
2	3287	14.8	1
2	3288	14.8	1
2	3289	14.8	1
2	3298	14.9	1
2	3299	14.9	1
2	3300	14.9	1
2	3301	14.9	1
2	3310	15	1
2	3311	15	1
2	3312	15	1
2	3313	15	1
3	200	1.21456	36
3	211	1.22	72
3	406	2.31456	108
3	407	2.31456	144
3	420	2.32	180
3	421	2.32	216
3	439	2.32544	252
3	646	3.41456	288
3	647	3.41456	324
3	660	3.42	360
3	661	3.42	396
3	674	3.42544	432
3	675	3.42544	468
3	693	3.43088	504
3	912	4.51456	540
3	913	4.51456	576
3	926	4.52	612
3	927	4.52	648
3	940	4.52544	684
3	941	4.52544	720
3	954	4.53088	756
3	955	4.53088	792
3	973	4.53632	828
3	1574	10.81456	864
3	1575	10.81456	900
3	1588	10.82	936
3	1589	10.82	972
3	1602	10.82544	1008
3	1603	10.82544	1044
3	1616	10.83088	1080
3	1617	10.83088	1116
3	1630	10.83632	1152
3	1631	10.83632	1188
3	1649	10.84176	1224
3	1664	10.8472	1260
3	1679	10.85264	1296
3	1694	10.85808	1332
3	1705	10.86352	1368
3	1716	10.86896	1404
3	1956	11.91456	1440
3	1957	11.91456	1476
3	1970	11.92	1512
3	1971	11.92	1548
3	1984	11.92544	1584
3	1985	11.92544	1620
3	1998	11.93088	1656
3	1999	11.93088	1692
3	2012	11.93632	1728
3	2013	11.93632	1764
3	2026	11.94176	1800
3	2027	11.94176	1836
3	2040	11.9472	1872
3	2041	11.9472	1908
3	2054	11.95264	1944
3	2055	11.95264	1980
3	2068	11.95808	2016
3	2069	11.95808	2052
3	2082	11.96352	2088
3	2083	11.96352	2124
3	2096	11.96896	2160
3	2097	11.96896	2196
3	2115	11.9744	2232
3	2419	13.01456	2268
3	2420	13.01456	2304
3	2433	13.02	2340
3	2434	13.02	2376
3	2447	13.02544	2412
3	2448	13.02544	2448
3	2461	13.03088	2484
3	2462	13.03088	2520
3	2475	13.03632	2556
3	2476	13.03632	2592
3	2489	13.04176	2628
3	2490	13.04176	2664
3	2503	13.0472	2700
3	2504	13.0472	2736
3	2517	13.05264	2772
3	2518	13.05264	2808
3	2531	13.05808	2844
3	2532	13.05808	2880
3	2545	13.06352	2916
3	2546	13.06352	2952
3	2559	13.06896	2988
3	2560	13.06896	3024
3	2573	13.0744	3060
3	2574	13.0744	3096
3	2592	13.07984	3132
3	2912	14.11456	3168
3	2913	14.11456	3204
3	2926	14.12	3240
3	2927	14.12	3276
3	2940	14.12544	3312
3	2941	14.12544	3348
3	2954	14.13088	3384
3	2955	14.13088	3420
3	2968	14.13632	3456
3	2969	14.13632	3492
3	2982	14.14176	3528
3	2983	14.14176	3564
3	2996	14.1472	3600
3	2997	14.1472	3636
3	3010	14.15264	3672
3	3011	14.15264	3708
3	3024	14.15808	3744
3	3025	14.15808	3780
3	3038	14.16352	3816
3	3039	14.16352	3852
3	3052	14.16896	3888
3	3053	14.16896	3924
3	3066	14.1744	3960
3	3067	14.1744	3996
3	3080	14.17984	4032
3	3081	14.17984	4068
3	3099	14.18528	4104
3	3114	14.19072	4140
4	200	1.21456	36
4	211	1.22	72
4	406	2.31456	108
4	407	2.31456	144
4	420	2.32	180
4	421	2.32	216
4	439	2.32544	252
4	646	3.41456	288
4	647	3.41456	324
4	660	3.42	360
4	661	3.42	396
4	674	3.42544	432
4	675	3.42544	468
4	693	3.43088	504
4	912	4.51456	540
4	913	4.51456	576
4	926	4.52	612
4	927	4.52	648
4	940	4.52544	684
4	941	4.52544	720
4	954	4.53088	756
4	955	4.53088	792
4	973	4.53632	828
4	1574	10.81456	864
4	1575	10.81456	900
4	1588	10.82	936
4	1589	10.82	972
4	1602	10.82544	1008
4	1603	10.82544	1044
4	1616	10.83088	1080
4	1617	10.83088	1116
4	1630	10.83632	1152
4	1631	10.83632	1188
4	1649	10.84176	1224
4	1664	10.8472	1260
4	1679	10.85264	1296
4	1694	10.85808	1332
4	1705	10.86352	1368
4	1716	10.86896	1404
4	1956	11.91456	1440
4	1957	11.91456	1476
4	1970	11.92	1512
4	1971	11.92	1548
4	1984	11.92544	1584
4	1985	11.92544	1620
4	1998	11.93088	1656
4	1999	11.93088	1692
4	2012	11.93632	1728
4	2013	11.93632	1764
4	2026	11.94176	1800
4	2027	11.94176	1836
4	2040	11.9472	1872
4	2041	11.9472	1908
4	2054	11.95264	1944
4	2055	11.95264	1980
4	2068	11.95808	2016
4	2069	11.95808	2052
4	2082	11.96352	2088
4	2083	11.96352	2124
4	2096	11.96896	2160
4	2097	11.96896	2196
4	2115	11.9744	2232
4	2419	13.01456	2268
4	2420	13.01456	2304
4	2433	13.02	2340
4	2434	13.02	2376
4	2447	13.02544	2412
4	2448	13.02544	2448
4	2461	13.03088	2484
4	2462	13.03088	2520
4	2475	13.03632	2556
4	2476	13.03632	2592
4	2489	13.04176	2628
4	2490	13.04176	2664
4	2503	13.0472	2700
4	2504	13.0472	2736
4	2517	13.05264	2772
4	2518	13.05264	2808
4	2531	13.05808	2844
4	2532	13.05808	2880
4	2545	13.06352	2916
4	2546	13.06352	2952
4	2559	13.06896	2988
4	2560	13.06896	3024
4	2573	13.0744	3060
4	2574	13.0744	3096
4	2592	13.07984	3132
4	2912	14.11456	3168
4	2913	14.11456	3204
4	2926	14.12	3240
4	2927	14.12	3276
4	2940	14.12544	3312
4	2941	14.12544	3348
4	2954	14.13088	3384
4	2955	14.13088	3420
4	2968	14.13632	3456
4	2969	14.13632	3492
4	2982	14.14176	3528
4	2983	14.14176	3564
4	2996	14.1472	3600
4	2997	14.1472	3636
4	3010	14.15264	3672
4	3011	14.15264	3708
4	3024	14.15808	3744
4	3025	14.15808	3780
4	3038	14.16352	3816
4	3039	14.16352	3852
4	3052	14.16896	3888
4	3053	14.16896	3924
4	3066	14.1744	3960
4	3067	14.1744	3996
4	3080	14.17984	4032
4	3081	14.17984	4068
4	3099	14.18528	4104
4	3114	14.19072	4140
5	202	1.21456	10
5	213	1.22	20
5	441	2.32544	30
5	695	3.43088	40
5	1651	10.84176	50
5	1681	10.85264	60
5	1707	10.86352	70
5	1718	10.86896	80
5	2117	11.9744	90
5	2594	13.07984	100
5	3101	14.18528	110
5	3116	14.19072	120
6	202	1.21456	1.11456
6	213	1.22	0.12
6	441	2.32544	0.22544
6	695	3.43088	0.33088
6	975	4.53632	0.43632
6	1651	10.84176	5.74176
6	1666	10.8472	4.7472
6	1681	10.85264	3.75264
6	1696	10.85808	2.75808
6	1707	10.86352	1.76352
6	1718	10.86896	0.76896
6	2117	11.9744	0.8744
6	2594	13.07984	0.97984
6	3101	14.18528	1.08528
6	3116	14.19072	0.09072
7	409	2.31456	10
7	411	2.31456	20
7	423	2.32	30
7	425	2.32	40
7	649	3.41456	50
7	651	3.41456	60
7	663	3.42	70
7	665	3.42	80
7	677	3.42544	90
7	679	3.42544	100
7	915	4.51456	110
7	917	4.51456	120
7	929	4.52	130
7	931	4.52	140
7	943	4.52544	150
7	945	4.52544	160
7	957	4.53088	170
7	959	4.53088	180
7	1577	10.81456	190
7	1579	10.81456	200
7	1591	10.82	210
7	1593	10.82	220
7	1605	10.82544	230
7	1607	10.82544	240
7	1619	10.83088	250
7	1621	10.83088	260
7	1633	10.83632	270
7	1635	10.83632	280
7	1959	11.91456	290
7	1961	11.91456	300
7	1973	11.92	310
7	1975	11.92	320
7	1987	11.92544	330
7	1989	11.92544	340
7	2001	11.93088	350
7	2003	11.93088	360
7	2015	11.93632	370
7	2017	11.93632	380
7	2029	11.94176	390
7	2031	11.94176	400
7	2043	11.9472	410
7	2045	11.9472	420
7	2057	11.95264	430
7	2059	11.95264	440
7	2071	11.95808	450
7	2073	11.95808	460
7	2085	11.96352	470
7	2087	11.96352	480
7	2099	11.96896	490
7	2101	11.96896	500
7	2422	13.01456	510
7	2424	13.01456	520
7	2436	13.02	530
7	2438	13.02	540
7	2450	13.02544	550
7	2452	13.02544	560
7	2464	13.03088	570
7	2466	13.03088	580
7	2478	13.03632	590
7	2480	13.03632	600
7	2492	13.04176	610
7	2494	13.04176	620
7	2506	13.0472	630
7	2508	13.0472	640
7	2520	13.05264	650
7	2522	13.05264	660
7	2534	13.05808	670
7	2536	13.05808	680
7	2548	13.06352	690
7	2550	13.06352	700
7	2562	13.06896	710
7	2564	13.06896	720
7	2576	13.0744	730
7	2578	13.0744	740
7	2915	14.11456	750
7	2917	14.11456	760
7	2929	14.12	770
7	2931	14.12	780
7	2943	14.12544	790
7	2945	14.12544	800
7	2957	14.13088	810
7	2959	14.13088	820
7	2971	14.13632	830
7	2973	14.13632	840
7	2985	14.14176	850
7	2987	14.14176	860
7	2999	14.1472	870
7	3001	14.1472	880
7	3013	14.15264	890
7	3015	14.15264	900
7	3027	14.15808	910
7	3029	14.15808	920
7	3041	14.16352	930
7	3043	14.16352	940
7	3055	14.16896	950
7	3057	14.16896	960
7	3069	14.1744	970
7	3071	14.1744	980
7	3083	14.17984	990
7	3085	14.17984	1000
8	795	4.1	20
8	1146	6.1	40
8	1250	8.1	60
9	975	4.53632	10
9	1666	10.8472	20
9	1696	10.85808	30

