version 2
run Moves4-0-20190727-22:34:42-9985
attr configname Moves4
attr datetime 20190727-22:34:42
attr experiment Moves4
attr inifile TormV1.ini
attr iterationvars $0=2
attr iterationvarsf 2-
attr measurement $0=2
attr network NetworkTormV1
attr processid 9985
attr repetition 0
attr replication #0
attr resultdir results
attr runnumber 0
attr seedset 0
param **.mobility.traceFile "\"paths/Moves4.movements\""
param **.numNodes 2
param **.application.usedRNG 1
param **.application.dataGenerationInterval 1s
param **.application.dataSizeInBytes 10
param **.application.ttl 999999s
param **.application.nodeGenMsg 0
param **application.destinationAddr "\"02:00:00:00:00:03\""
param **.routingLayer "\"EpidemicRoutingLayer\""
param **.routing.maximumCacheSize 500byte
param **.routing.maximumHopCount 25
param **.routing.useTTL false
param **.neighboring.antiEntropyInterval 1s
param **.neighboring.maximumRandomBackoffDuration 1s
param **neighboring.usedRNG 2
param **.neighboring.GWAddr "\"02:00:00:00:00:03\""
param **.neighboring.sendWifiFirst true
param **.storage.maximumCacheSize 500byte
param **.wirelessIfc.wirelessRange 15m
param **.wirelessIfc.neighbourScanInterval 100ms
param **.wirelessIfc.bandwidthBitRate 100000bps
param **.wirelessIfc.wirelessHeaderSize 32byte
param **.wirelessIfc.minSSI -90
param **.bluetoothIfc.wirelessRange 15m
param **.bluetoothIfc.neighbourScanInterval 100ms
param **.bluetoothIfc.bandwidthBitRate 100000bps
param **.bluetoothIfc.wirelessHeaderSize 16byte
param **.bluetoothIfc.minSSI -90
param **.mobilityType "\"BonnMotionMobility\""
param **.mobility.traceFile "\"paths/Moves2.movements\""
param **.mobility.nodeId -1

vector 0 NetworkTormV1 nonLikedDataBytesReceivableByAllNodesSum:vector ETV
attr source sum(nonLikedDataBytesReceivableByAllNodes)
vector 1 NetworkTormV1 deliveryRatio:vector ETV
attr source sum(totalDataBytesReceived)/sum(totalDataBytesReceivableByAllNodes)
vector 2 NetworkTormV1 neighbourhoodSize:vector ETV
attr source neighbourhoodSize
vector 3 NetworkTormV1 dataBytesReceivedSum:vector ETV
attr source sum(dataBytesReceived)
vector 4 NetworkTormV1 totalBytesReceivedSum:vector ETV
attr source sum(totalBytesReceived)
vector 5 NetworkTormV1 nonLikedDataBytesReceivedSum:vector ETV
attr source sum(nonLikedDataBytesReceived)
vector 6 NetworkTormV1 dataDelay:vector ETV
attr source dataDelay
vector 7 NetworkTormV1 duplicateDataBytesReceivedSum:vector ETV
attr source sum(duplicateDataBytesReceived)
vector 8 NetworkTormV1 likedDataBytesReceivableByAllNodesSum:vector ETV
attr source sum(likedDataBytesReceivableByAllNodes)
vector 9 NetworkTormV1 likedDataBytesReceivedSum:vector ETV
attr source sum(likedDataBytesReceived)
0	7	0.1	20
0	139	1.1	40
0	323	2.1	60
0	546	3.1	80
0	674	5.1	100
0	778	7.1	120
0	924	9.1	140
0	1241	10.1	160
0	1363	11.1	180
0	1797	12.1	200
0	2270	13.1	220
0	2769	14.1	240
1	7	0.1	-nan
1	139	1.1	-nan
1	202	1.21456	0.25
1	213	1.22	0.5
1	323	2.1	0.33333333333333
1	441	2.32544	0.5
1	546	3.1	0.375
1	622	4.1	0.3
1	674	5.1	0.25
1	726	6.1	0.21428571428571
1	778	7.1	0.1875
1	830	8.1	0.16666666666667
1	924	9.1	0.15
1	1153	10.03088	0.2
1	1168	10.03632	0.25
1	1179	10.04176	0.3
1	1190	10.0472	0.35
1	1201	10.05264	0.4
1	1212	10.05808	0.45
1	1223	10.06352	0.5
1	1241	10.1	0.45454545454545
1	1363	11.1	0.41666666666667
1	1600	11.16896	0.45833333333333
1	1615	11.1744	0.5
1	1797	12.1	0.46153846153846
1	2080	12.27984	0.5
1	2270	13.1	0.46428571428571
1	2583	13.38528	0.5
1	2769	14.1	0.46666666666667
1	3112	14.49072	0.5
2	8	0.1	1
2	9	0.1	1
2	10	0.1	1
2	11	0.1	1
2	22	0.2	1
2	23	0.2	1
2	24	0.2	1
2	25	0.2	1
2	35	0.3	1
2	36	0.3	1
2	37	0.3	1
2	38	0.3	1
2	48	0.4	1
2	49	0.4	1
2	50	0.4	1
2	51	0.4	1
2	61	0.5	1
2	62	0.5	1
2	63	0.5	1
2	64	0.5	1
2	74	0.6	1
2	75	0.6	1
2	76	0.6	1
2	77	0.6	1
2	87	0.7	1
2	88	0.7	1
2	89	0.7	1
2	90	0.7	1
2	100	0.8	1
2	101	0.8	1
2	102	0.8	1
2	103	0.8	1
2	113	0.9	1
2	114	0.9	1
2	115	0.9	1
2	116	0.9	1
2	126	1	1
2	127	1	1
2	128	1	1
2	129	1	1
2	140	1.1	1
2	141	1.1	1
2	142	1.1	1
2	143	1.1	1
2	154	1.2	1
2	155	1.2	1
2	156	1.2	1
2	157	1.2	1
2	219	1.3	1
2	220	1.3	1
2	221	1.3	1
2	222	1.3	1
2	232	1.4	1
2	233	1.4	1
2	234	1.4	1
2	235	1.4	1
2	245	1.5	1
2	246	1.5	1
2	247	1.5	1
2	248	1.5	1
2	258	1.6	1
2	259	1.6	1
2	260	1.6	1
2	261	1.6	1
2	271	1.7	1
2	272	1.7	1
2	273	1.7	1
2	274	1.7	1
2	284	1.8	1
2	285	1.8	1
2	286	1.8	1
2	287	1.8	1
2	297	1.9	1
2	298	1.9	1
2	299	1.9	1
2	300	1.9	1
2	310	2	1
2	311	2	1
2	312	2	1
2	313	2	1
2	324	2.1	1
2	325	2.1	1
2	326	2.1	1
2	327	2.1	1
2	338	2.2	1
2	339	2.2	1
2	340	2.2	1
2	341	2.2	1
2	351	2.3	1
2	352	2.3	1
2	353	2.3	1
2	354	2.3	1
2	455	2.4	1
2	456	2.4	1
2	457	2.4	1
2	458	2.4	1
2	468	2.5	1
2	469	2.5	1
2	470	2.5	1
2	471	2.5	1
2	481	2.6	1
2	482	2.6	1
2	483	2.6	1
2	484	2.6	1
2	494	2.7	1
2	495	2.7	1
2	496	2.7	1
2	497	2.7	1
2	507	2.8	1
2	508	2.8	1
2	509	2.8	1
2	510	2.8	1
2	520	2.9	1
2	521	2.9	1
2	522	2.9	1
2	523	2.9	1
2	533	3	1
2	534	3	1
2	535	3	1
2	536	3	1
2	547	3.1	1
2	548	3.1	1
2	549	3.1	1
2	550	3.1	1
2	561	3.2	1
2	562	3.2	1
2	563	3.2	1
2	564	3.2	1
2	574	3.3	1
2	575	3.3	1
2	576	3.3	1
2	577	3.3	1
2	587	3.4	0
2	588	3.4	0
2	589	3.4	0
2	590	3.4	0
2	592	3.5	0
2	593	3.5	0
2	594	3.5	0
2	595	3.5	0
2	597	3.6	0
2	598	3.6	0
2	599	3.6	0
2	600	3.6	0
2	602	3.7	0
2	603	3.7	0
2	604	3.7	0
2	605	3.7	0
2	607	3.8	0
2	608	3.8	0
2	609	3.8	0
2	610	3.8	0
2	612	3.9	0
2	613	3.9	0
2	614	3.9	0
2	615	3.9	0
2	617	4	0
2	618	4	0
2	619	4	0
2	620	4	0
2	623	4.1	0
2	624	4.1	0
2	625	4.1	0
2	626	4.1	0
2	629	4.2	0
2	630	4.2	0
2	631	4.2	0
2	632	4.2	0
2	634	4.3	0
2	635	4.3	0
2	636	4.3	0
2	637	4.3	0
2	639	4.4	0
2	640	4.4	0
2	641	4.4	0
2	642	4.4	0
2	644	4.5	0
2	645	4.5	0
2	646	4.5	0
2	647	4.5	0
2	649	4.6	0
2	650	4.6	0
2	651	4.6	0
2	652	4.6	0
2	654	4.7	0
2	655	4.7	0
2	656	4.7	0
2	657	4.7	0
2	659	4.8	0
2	660	4.8	0
2	661	4.8	0
2	662	4.8	0
2	664	4.9	0
2	665	4.9	0
2	666	4.9	0
2	667	4.9	0
2	669	5	0
2	670	5	0
2	671	5	0
2	672	5	0
2	675	5.1	0
2	676	5.1	0
2	677	5.1	0
2	678	5.1	0
2	681	5.2	0
2	682	5.2	0
2	683	5.2	0
2	684	5.2	0
2	686	5.3	0
2	687	5.3	0
2	688	5.3	0
2	689	5.3	0
2	691	5.4	0
2	692	5.4	0
2	693	5.4	0
2	694	5.4	0
2	696	5.5	0
2	697	5.5	0
2	698	5.5	0
2	699	5.5	0
2	701	5.6	0
2	702	5.6	0
2	703	5.6	0
2	704	5.6	0
2	706	5.7	0
2	707	5.7	0
2	708	5.7	0
2	709	5.7	0
2	711	5.8	0
2	712	5.8	0
2	713	5.8	0
2	714	5.8	0
2	716	5.9	0
2	717	5.9	0
2	718	5.9	0
2	719	5.9	0
2	721	6	0
2	722	6	0
2	723	6	0
2	724	6	0
2	727	6.1	0
2	728	6.1	0
2	729	6.1	0
2	730	6.1	0
2	733	6.2	0
2	734	6.2	0
2	735	6.2	0
2	736	6.2	0
2	738	6.3	0
2	739	6.3	0
2	740	6.3	0
2	741	6.3	0
2	743	6.4	0
2	744	6.4	0
2	745	6.4	0
2	746	6.4	0
2	748	6.5	0
2	749	6.5	0
2	750	6.5	0
2	751	6.5	0
2	753	6.6	0
2	754	6.6	0
2	755	6.6	0
2	756	6.6	0
2	758	6.7	0
2	759	6.7	0
2	760	6.7	0
2	761	6.7	0
2	763	6.8	0
2	764	6.8	0
2	765	6.8	0
2	766	6.8	0
2	768	6.9	0
2	769	6.9	0
2	770	6.9	0
2	771	6.9	0
2	773	7	0
2	774	7	0
2	775	7	0
2	776	7	0
2	779	7.1	0
2	780	7.1	0
2	781	7.1	0
2	782	7.1	0
2	785	7.2	0
2	786	7.2	0
2	787	7.2	0
2	788	7.2	0
2	790	7.3	0
2	791	7.3	0
2	792	7.3	0
2	793	7.3	0
2	795	7.4	0
2	796	7.4	0
2	797	7.4	0
2	798	7.4	0
2	800	7.5	0
2	801	7.5	0
2	802	7.5	0
2	803	7.5	0
2	805	7.6	0
2	806	7.6	0
2	807	7.6	0
2	808	7.6	0
2	810	7.7	0
2	811	7.7	0
2	812	7.7	0
2	813	7.7	0
2	815	7.8	0
2	816	7.8	0
2	817	7.8	0
2	818	7.8	0
2	820	7.9	0
2	821	7.9	0
2	822	7.9	0
2	823	7.9	0
2	825	8	0
2	826	8	0
2	827	8	0
2	828	8	0
2	831	8.1	0
2	832	8.1	0
2	833	8.1	0
2	834	8.1	0
2	837	8.2	0
2	838	8.2	0
2	839	8.2	0
2	840	8.2	0
2	842	8.3	0
2	843	8.3	0
2	844	8.3	0
2	845	8.3	0
2	847	8.4	0
2	848	8.4	0
2	849	8.4	0
2	850	8.4	0
2	852	8.5	0
2	853	8.5	0
2	854	8.5	0
2	855	8.5	0
2	857	8.6	0
2	858	8.6	0
2	859	8.6	0
2	860	8.6	0
2	862	8.7	0
2	863	8.7	0
2	864	8.7	0
2	865	8.7	0
2	867	8.8	0
2	868	8.8	0
2	869	8.8	0
2	870	8.8	0
2	872	8.9	1
2	873	8.9	1
2	874	8.9	1
2	875	8.9	1
2	911	9	1
2	912	9	1
2	913	9	1
2	914	9	1
2	925	9.1	1
2	926	9.1	1
2	927	9.1	1
2	928	9.1	1
2	938	9.2	1
2	939	9.2	1
2	940	9.2	1
2	941	9.2	1
2	950	9.3	1
2	951	9.3	1
2	952	9.3	1
2	953	9.3	1
2	962	9.4	1
2	963	9.4	1
2	964	9.4	1
2	965	9.4	1
2	974	9.5	1
2	975	9.5	1
2	976	9.5	1
2	977	9.5	1
2	986	9.6	1
2	987	9.6	1
2	988	9.6	1
2	989	9.6	1
2	998	9.7	1
2	999	9.7	1
2	1000	9.7	1
2	1001	9.7	1
2	1010	9.8	1
2	1011	9.8	1
2	1012	9.8	1
2	1013	9.8	1
2	1022	9.9	1
2	1023	9.9	1
2	1024	9.9	1
2	1025	9.9	1
2	1034	10	1
2	1035	10	1
2	1036	10	1
2	1037	10	1
2	1242	10.1	1
2	1243	10.1	1
2	1244	10.1	1
2	1245	10.1	1
2	1255	10.2	1
2	1256	10.2	1
2	1257	10.2	1
2	1258	10.2	1
2	1267	10.3	1
2	1268	10.3	1
2	1269	10.3	1
2	1270	10.3	1
2	1279	10.4	1
2	1280	10.4	1
2	1281	10.4	1
2	1282	10.4	1
2	1291	10.5	1
2	1292	10.5	1
2	1293	10.5	1
2	1294	10.5	1
2	1303	10.6	1
2	1304	10.6	1
2	1305	10.6	1
2	1306	10.6	1
2	1315	10.7	1
2	1316	10.7	1
2	1317	10.7	1
2	1318	10.7	1
2	1327	10.8	1
2	1328	10.8	1
2	1329	10.8	1
2	1330	10.8	1
2	1339	10.9	1
2	1340	10.9	1
2	1341	10.9	1
2	1342	10.9	1
2	1351	11	1
2	1352	11	1
2	1353	11	1
2	1354	11	1
2	1364	11.1	1
2	1365	11.1	1
2	1366	11.1	1
2	1367	11.1	1
2	1685	11.2	1
2	1686	11.2	1
2	1687	11.2	1
2	1688	11.2	1
2	1701	11.3	1
2	1702	11.3	1
2	1703	11.3	1
2	1704	11.3	1
2	1713	11.4	1
2	1714	11.4	1
2	1715	11.4	1
2	1716	11.4	1
2	1725	11.5	1
2	1726	11.5	1
2	1727	11.5	1
2	1728	11.5	1
2	1737	11.6	1
2	1738	11.6	1
2	1739	11.6	1
2	1740	11.6	1
2	1749	11.7	1
2	1750	11.7	1
2	1751	11.7	1
2	1752	11.7	1
2	1761	11.8	1
2	1762	11.8	1
2	1763	11.8	1
2	1764	11.8	1
2	1773	11.9	1
2	1774	11.9	1
2	1775	11.9	1
2	1776	11.9	1
2	1785	12	1
2	1786	12	1
2	1787	12	1
2	1788	12	1
2	1798	12.1	1
2	1799	12.1	1
2	1800	12.1	1
2	1801	12.1	1
2	1811	12.2	1
2	1812	12.2	1
2	1813	12.2	1
2	1814	12.2	1
2	2138	12.3	1
2	2139	12.3	1
2	2140	12.3	1
2	2141	12.3	1
2	2186	12.4	1
2	2187	12.4	1
2	2188	12.4	1
2	2189	12.4	1
2	2198	12.5	1
2	2199	12.5	1
2	2200	12.5	1
2	2201	12.5	1
2	2210	12.6	1
2	2211	12.6	1
2	2212	12.6	1
2	2213	12.6	1
2	2222	12.7	1
2	2223	12.7	1
2	2224	12.7	1
2	2225	12.7	1
2	2234	12.8	1
2	2235	12.8	1
2	2236	12.8	1
2	2237	12.8	1
2	2246	12.9	1
2	2247	12.9	1
2	2248	12.9	1
2	2249	12.9	1
2	2258	13	1
2	2259	13	1
2	2260	13	1
2	2261	13	1
2	2271	13.1	1
2	2272	13.1	1
2	2273	13.1	1
2	2274	13.1	1
2	2284	13.2	1
2	2285	13.2	1
2	2286	13.2	1
2	2287	13.2	1
2	2296	13.3	1
2	2297	13.3	1
2	2298	13.3	1
2	2299	13.3	1
2	2625	13.4	1
2	2626	13.4	1
2	2627	13.4	1
2	2628	13.4	1
2	2697	13.5	1
2	2698	13.5	1
2	2699	13.5	1
2	2700	13.5	1
2	2709	13.6	1
2	2710	13.6	1
2	2711	13.6	1
2	2712	13.6	1
2	2721	13.7	1
2	2722	13.7	1
2	2723	13.7	1
2	2724	13.7	1
2	2733	13.8	1
2	2734	13.8	1
2	2735	13.8	1
2	2736	13.8	1
2	2745	13.9	1
2	2746	13.9	1
2	2747	13.9	1
2	2748	13.9	1
2	2757	14	1
2	2758	14	1
2	2759	14	1
2	2760	14	1
2	2770	14.1	1
2	2771	14.1	1
2	2772	14.1	1
2	2773	14.1	1
2	2783	14.2	1
2	2784	14.2	1
2	2785	14.2	1
2	2786	14.2	1
2	2795	14.3	1
2	2796	14.3	1
2	2797	14.3	1
2	2798	14.3	1
2	2807	14.4	1
2	2808	14.4	1
2	2809	14.4	1
2	2810	14.4	1
2	3138	14.5	1
2	3139	14.5	1
2	3140	14.5	1
2	3141	14.5	1
2	3234	14.6	1
2	3235	14.6	1
2	3236	14.6	1
2	3237	14.6	1
2	3246	14.7	1
2	3247	14.7	1
2	3248	14.7	1
2	3249	14.7	1
2	3258	14.8	1
2	3259	14.8	1
2	3260	14.8	1
2	3261	14.8	1
2	3270	14.9	1
2	3271	14.9	1
2	3272	14.9	1
2	3273	14.9	1
2	3282	15	1
2	3283	15	1
2	3284	15	1
2	3285	15	1
3	200	1.21456	36
3	211	1.22	72
3	406	2.31456	108
3	407	2.31456	144
3	420	2.32	180
3	421	2.32	216
3	439	2.32544	252
3	1104	10.01456	288
3	1105	10.01456	324
3	1118	10.02	360
3	1119	10.02	396
3	1132	10.02544	432
3	1133	10.02544	468
3	1151	10.03088	504
3	1166	10.03632	540
3	1177	10.04176	576
3	1188	10.0472	612
3	1199	10.05264	648
3	1210	10.05808	684
3	1221	10.06352	720
3	1453	11.11456	756
3	1454	11.11456	792
3	1467	11.12	828
3	1468	11.12	864
3	1481	11.12544	900
3	1482	11.12544	936
3	1495	11.13088	972
3	1496	11.13088	1008
3	1509	11.13632	1044
3	1510	11.13632	1080
3	1523	11.14176	1116
3	1524	11.14176	1152
3	1537	11.1472	1188
3	1538	11.1472	1224
3	1551	11.15264	1260
3	1552	11.15264	1296
3	1565	11.15808	1332
3	1566	11.15808	1368
3	1579	11.16352	1404
3	1580	11.16352	1440
3	1598	11.16896	1476
3	1613	11.1744	1512
3	1905	12.21456	1548
3	1906	12.21456	1584
3	1919	12.22	1620
3	1920	12.22	1656
3	1933	12.22544	1692
3	1934	12.22544	1728
3	1947	12.23088	1764
3	1948	12.23088	1800
3	1961	12.23632	1836
3	1962	12.23632	1872
3	1975	12.24176	1908
3	1976	12.24176	1944
3	1989	12.2472	1980
3	1990	12.2472	2016
3	2003	12.25264	2052
3	2004	12.25264	2088
3	2017	12.25808	2124
3	2018	12.25808	2160
3	2031	12.26352	2196
3	2032	12.26352	2232
3	2045	12.26896	2268
3	2046	12.26896	2304
3	2059	12.2744	2340
3	2060	12.2744	2376
3	2078	12.27984	2412
3	2394	13.31456	2448
3	2395	13.31456	2484
3	2408	13.32	2520
3	2409	13.32	2556
3	2422	13.32544	2592
3	2423	13.32544	2628
3	2436	13.33088	2664
3	2437	13.33088	2700
3	2450	13.33632	2736
3	2451	13.33632	2772
3	2464	13.34176	2808
3	2465	13.34176	2844
3	2478	13.3472	2880
3	2479	13.3472	2916
3	2492	13.35264	2952
3	2493	13.35264	2988
3	2506	13.35808	3024
3	2507	13.35808	3060
3	2520	13.36352	3096
3	2521	13.36352	3132
3	2534	13.36896	3168
3	2535	13.36896	3204
3	2548	13.3744	3240
3	2549	13.3744	3276
3	2562	13.37984	3312
3	2563	13.37984	3348
3	2581	13.38528	3384
3	2909	14.41456	3420
3	2910	14.41456	3456
3	2923	14.42	3492
3	2924	14.42	3528
3	2937	14.42544	3564
3	2938	14.42544	3600
3	2951	14.43088	3636
3	2952	14.43088	3672
3	2965	14.43632	3708
3	2966	14.43632	3744
3	2979	14.44176	3780
3	2980	14.44176	3816
3	2993	14.4472	3852
3	2994	14.4472	3888
3	3007	14.45264	3924
3	3008	14.45264	3960
3	3021	14.45808	3996
3	3022	14.45808	4032
3	3035	14.46352	4068
3	3036	14.46352	4104
3	3049	14.46896	4140
3	3050	14.46896	4176
3	3063	14.4744	4212
3	3064	14.4744	4248
3	3077	14.47984	4284
3	3078	14.47984	4320
3	3091	14.48528	4356
3	3092	14.48528	4392
3	3110	14.49072	4428
4	200	1.21456	36
4	211	1.22	72
4	406	2.31456	108
4	407	2.31456	144
4	420	2.32	180
4	421	2.32	216
4	439	2.32544	252
4	1104	10.01456	288
4	1105	10.01456	324
4	1118	10.02	360
4	1119	10.02	396
4	1132	10.02544	432
4	1133	10.02544	468
4	1151	10.03088	504
4	1166	10.03632	540
4	1177	10.04176	576
4	1188	10.0472	612
4	1199	10.05264	648
4	1210	10.05808	684
4	1221	10.06352	720
4	1453	11.11456	756
4	1454	11.11456	792
4	1467	11.12	828
4	1468	11.12	864
4	1481	11.12544	900
4	1482	11.12544	936
4	1495	11.13088	972
4	1496	11.13088	1008
4	1509	11.13632	1044
4	1510	11.13632	1080
4	1523	11.14176	1116
4	1524	11.14176	1152
4	1537	11.1472	1188
4	1538	11.1472	1224
4	1551	11.15264	1260
4	1552	11.15264	1296
4	1565	11.15808	1332
4	1566	11.15808	1368
4	1579	11.16352	1404
4	1580	11.16352	1440
4	1598	11.16896	1476
4	1613	11.1744	1512
4	1905	12.21456	1548
4	1906	12.21456	1584
4	1919	12.22	1620
4	1920	12.22	1656
4	1933	12.22544	1692
4	1934	12.22544	1728
4	1947	12.23088	1764
4	1948	12.23088	1800
4	1961	12.23632	1836
4	1962	12.23632	1872
4	1975	12.24176	1908
4	1976	12.24176	1944
4	1989	12.2472	1980
4	1990	12.2472	2016
4	2003	12.25264	2052
4	2004	12.25264	2088
4	2017	12.25808	2124
4	2018	12.25808	2160
4	2031	12.26352	2196
4	2032	12.26352	2232
4	2045	12.26896	2268
4	2046	12.26896	2304
4	2059	12.2744	2340
4	2060	12.2744	2376
4	2078	12.27984	2412
4	2394	13.31456	2448
4	2395	13.31456	2484
4	2408	13.32	2520
4	2409	13.32	2556
4	2422	13.32544	2592
4	2423	13.32544	2628
4	2436	13.33088	2664
4	2437	13.33088	2700
4	2450	13.33632	2736
4	2451	13.33632	2772
4	2464	13.34176	2808
4	2465	13.34176	2844
4	2478	13.3472	2880
4	2479	13.3472	2916
4	2492	13.35264	2952
4	2493	13.35264	2988
4	2506	13.35808	3024
4	2507	13.35808	3060
4	2520	13.36352	3096
4	2521	13.36352	3132
4	2534	13.36896	3168
4	2535	13.36896	3204
4	2548	13.3744	3240
4	2549	13.3744	3276
4	2562	13.37984	3312
4	2563	13.37984	3348
4	2581	13.38528	3384
4	2909	14.41456	3420
4	2910	14.41456	3456
4	2923	14.42	3492
4	2924	14.42	3528
4	2937	14.42544	3564
4	2938	14.42544	3600
4	2951	14.43088	3636
4	2952	14.43088	3672
4	2965	14.43632	3708
4	2966	14.43632	3744
4	2979	14.44176	3780
4	2980	14.44176	3816
4	2993	14.4472	3852
4	2994	14.4472	3888
4	3007	14.45264	3924
4	3008	14.45264	3960
4	3021	14.45808	3996
4	3022	14.45808	4032
4	3035	14.46352	4068
4	3036	14.46352	4104
4	3049	14.46896	4140
4	3050	14.46896	4176
4	3063	14.4744	4212
4	3064	14.4744	4248
4	3077	14.47984	4284
4	3078	14.47984	4320
4	3091	14.48528	4356
4	3092	14.48528	4392
4	3110	14.49072	4428
5	202	1.21456	10
5	213	1.22	20
5	441	2.32544	30
5	1153	10.03088	40
5	1179	10.04176	50
5	1201	10.05264	60
5	1223	10.06352	70
5	1600	11.16896	80
5	1615	11.1744	90
5	2080	12.27984	100
5	2583	13.38528	110
5	3112	14.49072	120
6	202	1.21456	1.11456
6	213	1.22	0.12
6	441	2.32544	0.22544
6	1153	10.03088	6.93088
6	1168	10.03632	5.93632
6	1179	10.04176	4.94176
6	1190	10.0472	3.9472
6	1201	10.05264	2.95264
6	1212	10.05808	1.95808
6	1223	10.06352	0.96352
6	1600	11.16896	1.06896
6	1615	11.1744	0.0744
6	2080	12.27984	0.17984
6	2583	13.38528	0.28528
6	3112	14.49072	0.39072
7	409	2.31456	10
7	411	2.31456	20
7	423	2.32	30
7	425	2.32	40
7	1107	10.01456	50
7	1109	10.01456	60
7	1121	10.02	70
7	1123	10.02	80
7	1135	10.02544	90
7	1137	10.02544	100
7	1456	11.11456	110
7	1458	11.11456	120
7	1470	11.12	130
7	1472	11.12	140
7	1484	11.12544	150
7	1486	11.12544	160
7	1498	11.13088	170
7	1500	11.13088	180
7	1512	11.13632	190
7	1514	11.13632	200
7	1526	11.14176	210
7	1528	11.14176	220
7	1540	11.1472	230
7	1542	11.1472	240
7	1554	11.15264	250
7	1556	11.15264	260
7	1568	11.15808	270
7	1570	11.15808	280
7	1582	11.16352	290
7	1584	11.16352	300
7	1908	12.21456	310
7	1910	12.21456	320
7	1922	12.22	330
7	1924	12.22	340
7	1936	12.22544	350
7	1938	12.22544	360
7	1950	12.23088	370
7	1952	12.23088	380
7	1964	12.23632	390
7	1966	12.23632	400
7	1978	12.24176	410
7	1980	12.24176	420
7	1992	12.2472	430
7	1994	12.2472	440
7	2006	12.25264	450
7	2008	12.25264	460
7	2020	12.25808	470
7	2022	12.25808	480
7	2034	12.26352	490
7	2036	12.26352	500
7	2048	12.26896	510
7	2050	12.26896	520
7	2062	12.2744	530
7	2064	12.2744	540
7	2397	13.31456	550
7	2399	13.31456	560
7	2411	13.32	570
7	2413	13.32	580
7	2425	13.32544	590
7	2427	13.32544	600
7	2439	13.33088	610
7	2441	13.33088	620
7	2453	13.33632	630
7	2455	13.33632	640
7	2467	13.34176	650
7	2469	13.34176	660
7	2481	13.3472	670
7	2483	13.3472	680
7	2495	13.35264	690
7	2497	13.35264	700
7	2509	13.35808	710
7	2511	13.35808	720
7	2523	13.36352	730
7	2525	13.36352	740
7	2537	13.36896	750
7	2539	13.36896	760
7	2551	13.3744	770
7	2553	13.3744	780
7	2565	13.37984	790
7	2567	13.37984	800
7	2912	14.41456	810
7	2914	14.41456	820
7	2926	14.42	830
7	2928	14.42	840
7	2940	14.42544	850
7	2942	14.42544	860
7	2954	14.43088	870
7	2956	14.43088	880
7	2968	14.43632	890
7	2970	14.43632	900
7	2982	14.44176	910
7	2984	14.44176	920
7	2996	14.4472	930
7	2998	14.4472	940
7	3010	14.45264	950
7	3012	14.45264	960
7	3024	14.45808	970
7	3026	14.45808	980
7	3038	14.46352	990
7	3040	14.46352	1000
7	3052	14.46896	1010
7	3054	14.46896	1020
7	3066	14.4744	1030
7	3068	14.4744	1040
7	3080	14.47984	1050
7	3082	14.47984	1060
7	3094	14.48528	1070
7	3096	14.48528	1080
8	622	4.1	20
8	726	6.1	40
8	830	8.1	60
9	1168	10.03632	10
9	1190	10.0472	20
9	1212	10.05808	30

