version 2
run Steady-0-20190727-21:49:28-9094
attr configname Steady
attr datetime 20190727-21:49:28
attr experiment Steady
attr inifile TormV1.ini
attr iterationvars $0=2
attr iterationvarsf 2-
attr measurement $0=2
attr network NetworkTormV1
attr processid 9094
attr repetition 0
attr replication #0
attr resultdir results
attr runnumber 0
attr seedset 0
param **.mobility.traceFile "\"paths/Steady1.movements\""
param **.numNodes 2
param **.application.usedRNG 1
param **.application.dataGenerationInterval 1s
param **.application.dataSizeInBytes 10
param **.application.ttl 999999s
param **.application.nodeGenMsg 0
param **application.destinationAddr "\"02:00:00:00:00:03\""
param **.routingLayer "\"EpidemicRoutingLayer\""
param **.routing.maximumCacheSize 500byte
param **.routing.maximumHopCount 25
param **.routing.useTTL false
param **.neighboring.antiEntropyInterval 1s
param **.neighboring.maximumRandomBackoffDuration 1s
param **neighboring.usedRNG 2
param **.neighboring.GWAddr "\"02:00:00:00:00:03\""
param **.neighboring.sendWifiFirst true
param **.storage.maximumCacheSize 500byte
param **.wirelessIfc.wirelessRange 15m
param **.wirelessIfc.neighbourScanInterval 100ms
param **.wirelessIfc.bandwidthBitRate 100000bps
param **.wirelessIfc.wirelessHeaderSize 32byte
param **.wirelessIfc.minSSI -90
param **.bluetoothIfc.wirelessRange 15m
param **.bluetoothIfc.neighbourScanInterval 100ms
param **.bluetoothIfc.bandwidthBitRate 100000bps
param **.bluetoothIfc.wirelessHeaderSize 16byte
param **.bluetoothIfc.minSSI -90
param **.mobilityType "\"BonnMotionMobility\""
param **.mobility.traceFile "\"paths/Moves2.movements\""
param **.mobility.nodeId -1

vector 0 NetworkTormV1 nonLikedDataBytesReceivableByAllNodesSum:vector ETV
attr source sum(nonLikedDataBytesReceivableByAllNodes)
vector 1 NetworkTormV1 deliveryRatio:vector ETV
attr source sum(totalDataBytesReceived)/sum(totalDataBytesReceivableByAllNodes)
vector 2 NetworkTormV1 neighbourhoodSize:vector ETV
attr source neighbourhoodSize
vector 3 NetworkTormV1 dataBytesReceivedSum:vector ETV
attr source sum(dataBytesReceived)
vector 4 NetworkTormV1 totalBytesReceivedSum:vector ETV
attr source sum(totalBytesReceived)
vector 5 NetworkTormV1 nonLikedDataBytesReceivedSum:vector ETV
attr source sum(nonLikedDataBytesReceived)
vector 6 NetworkTormV1 dataDelay:vector ETV
attr source dataDelay
vector 7 NetworkTormV1 duplicateDataBytesReceivedSum:vector ETV
attr source sum(duplicateDataBytesReceived)
vector 8 NetworkTormV1 likedDataBytesReceivableByAllNodesSum:vector ETV
attr source sum(likedDataBytesReceivableByAllNodes)
vector 9 NetworkTormV1 likedDataBytesReceivedSum:vector ETV
attr source sum(likedDataBytesReceived)
0	7	0.1	20
0	129	1.1	40
0	303	2.1	60
0	516	3.1	80
0	1020	5.1	100
0	1628	7.1	120
0	2340	9.1	140
0	2735	10.1	160
0	2857	11.1	180
0	3291	12.1	200
0	3764	13.1	220
0	4263	14.1	240
1	7	0.1	-nan
1	129	1.1	-nan
1	190	1.21456	0.25
1	201	1.22	0.5
1	303	2.1	0.33333333333333
1	418	2.32544	0.5
1	516	3.1	0.375
1	661	3.43088	0.5
1	755	4.1	0.4
1	930	4.53632	0.5
1	1020	5.1	0.41666666666667
1	1225	5.64176	0.5
1	1311	6.1	0.42857142857143
1	1546	6.7472	0.5
1	1628	7.1	0.4375
1	1893	7.85264	0.5
1	1971	8.1	0.44444444444444
1	2266	8.95808	0.5
1	2340	9.1	0.45
1	2665	10.06352	0.5
1	2735	10.1	0.45454545454545
1	2857	11.1	0.41666666666667
1	3094	11.16896	0.45833333333333
1	3109	11.1744	0.5
1	3291	12.1	0.46153846153846
1	3574	12.27984	0.5
1	3764	13.1	0.46428571428571
1	4077	13.38528	0.5
1	4263	14.1	0.46666666666667
1	4606	14.49072	0.5
2	8	0.1	1
2	9	0.1	1
2	10	0.1	1
2	11	0.1	1
2	21	0.2	1
2	22	0.2	1
2	23	0.2	1
2	24	0.2	1
2	33	0.3	1
2	34	0.3	1
2	35	0.3	1
2	36	0.3	1
2	45	0.4	1
2	46	0.4	1
2	47	0.4	1
2	48	0.4	1
2	57	0.5	1
2	58	0.5	1
2	59	0.5	1
2	60	0.5	1
2	69	0.6	1
2	70	0.6	1
2	71	0.6	1
2	72	0.6	1
2	81	0.7	1
2	82	0.7	1
2	83	0.7	1
2	84	0.7	1
2	93	0.8	1
2	94	0.8	1
2	95	0.8	1
2	96	0.8	1
2	105	0.9	1
2	106	0.9	1
2	107	0.9	1
2	108	0.9	1
2	117	1	1
2	118	1	1
2	119	1	1
2	120	1	1
2	130	1.1	1
2	131	1.1	1
2	132	1.1	1
2	133	1.1	1
2	143	1.2	1
2	144	1.2	1
2	145	1.2	1
2	146	1.2	1
2	207	1.3	1
2	208	1.3	1
2	209	1.3	1
2	210	1.3	1
2	219	1.4	1
2	220	1.4	1
2	221	1.4	1
2	222	1.4	1
2	231	1.5	1
2	232	1.5	1
2	233	1.5	1
2	234	1.5	1
2	243	1.6	1
2	244	1.6	1
2	245	1.6	1
2	246	1.6	1
2	255	1.7	1
2	256	1.7	1
2	257	1.7	1
2	258	1.7	1
2	267	1.8	1
2	268	1.8	1
2	269	1.8	1
2	270	1.8	1
2	279	1.9	1
2	280	1.9	1
2	281	1.9	1
2	282	1.9	1
2	291	2	1
2	292	2	1
2	293	2	1
2	294	2	1
2	304	2.1	1
2	305	2.1	1
2	306	2.1	1
2	307	2.1	1
2	317	2.2	1
2	318	2.2	1
2	319	2.2	1
2	320	2.2	1
2	329	2.3	1
2	330	2.3	1
2	331	2.3	1
2	332	2.3	1
2	432	2.4	1
2	433	2.4	1
2	434	2.4	1
2	435	2.4	1
2	444	2.5	1
2	445	2.5	1
2	446	2.5	1
2	447	2.5	1
2	456	2.6	1
2	457	2.6	1
2	458	2.6	1
2	459	2.6	1
2	468	2.7	1
2	469	2.7	1
2	470	2.7	1
2	471	2.7	1
2	480	2.8	1
2	481	2.8	1
2	482	2.8	1
2	483	2.8	1
2	492	2.9	1
2	493	2.9	1
2	494	2.9	1
2	495	2.9	1
2	504	3	1
2	505	3	1
2	506	3	1
2	507	3	1
2	517	3.1	1
2	518	3.1	1
2	519	3.1	1
2	520	3.1	1
2	530	3.2	1
2	531	3.2	1
2	532	3.2	1
2	533	3.2	1
2	542	3.3	1
2	543	3.3	1
2	544	3.3	1
2	545	3.3	1
2	554	3.4	1
2	555	3.4	1
2	556	3.4	1
2	557	3.4	1
2	683	3.5	1
2	684	3.5	1
2	685	3.5	1
2	686	3.5	1
2	695	3.6	1
2	696	3.6	1
2	697	3.6	1
2	698	3.6	1
2	707	3.7	1
2	708	3.7	1
2	709	3.7	1
2	710	3.7	1
2	719	3.8	1
2	720	3.8	1
2	721	3.8	1
2	722	3.8	1
2	731	3.9	1
2	732	3.9	1
2	733	3.9	1
2	734	3.9	1
2	743	4	1
2	744	4	1
2	745	4	1
2	746	4	1
2	756	4.1	1
2	757	4.1	1
2	758	4.1	1
2	759	4.1	1
2	769	4.2	1
2	770	4.2	1
2	771	4.2	1
2	772	4.2	1
2	781	4.3	1
2	782	4.3	1
2	783	4.3	1
2	784	4.3	1
2	793	4.4	1
2	794	4.4	1
2	795	4.4	1
2	796	4.4	1
2	805	4.5	1
2	806	4.5	1
2	807	4.5	1
2	808	4.5	1
2	960	4.6	1
2	961	4.6	1
2	962	4.6	1
2	963	4.6	1
2	972	4.7	1
2	973	4.7	1
2	974	4.7	1
2	975	4.7	1
2	984	4.8	1
2	985	4.8	1
2	986	4.8	1
2	987	4.8	1
2	996	4.9	1
2	997	4.9	1
2	998	4.9	1
2	999	4.9	1
2	1008	5	1
2	1009	5	1
2	1010	5	1
2	1011	5	1
2	1021	5.1	1
2	1022	5.1	1
2	1023	5.1	1
2	1024	5.1	1
2	1034	5.2	1
2	1035	5.2	1
2	1036	5.2	1
2	1037	5.2	1
2	1046	5.3	1
2	1047	5.3	1
2	1048	5.3	1
2	1049	5.3	1
2	1058	5.4	1
2	1059	5.4	1
2	1060	5.4	1
2	1061	5.4	1
2	1070	5.5	1
2	1071	5.5	1
2	1072	5.5	1
2	1073	5.5	1
2	1082	5.6	1
2	1083	5.6	1
2	1084	5.6	1
2	1085	5.6	1
2	1263	5.7	1
2	1264	5.7	1
2	1265	5.7	1
2	1266	5.7	1
2	1275	5.8	1
2	1276	5.8	1
2	1277	5.8	1
2	1278	5.8	1
2	1287	5.9	1
2	1288	5.9	1
2	1289	5.9	1
2	1290	5.9	1
2	1299	6	1
2	1300	6	1
2	1301	6	1
2	1302	6	1
2	1312	6.1	1
2	1313	6.1	1
2	1314	6.1	1
2	1315	6.1	1
2	1325	6.2	1
2	1326	6.2	1
2	1327	6.2	1
2	1328	6.2	1
2	1337	6.3	1
2	1338	6.3	1
2	1339	6.3	1
2	1340	6.3	1
2	1349	6.4	1
2	1350	6.4	1
2	1351	6.4	1
2	1352	6.4	1
2	1361	6.5	1
2	1362	6.5	1
2	1363	6.5	1
2	1364	6.5	1
2	1373	6.6	1
2	1374	6.6	1
2	1375	6.6	1
2	1376	6.6	1
2	1385	6.7	1
2	1386	6.7	1
2	1387	6.7	1
2	1388	6.7	1
2	1592	6.8	1
2	1593	6.8	1
2	1594	6.8	1
2	1595	6.8	1
2	1604	6.9	1
2	1605	6.9	1
2	1606	6.9	1
2	1607	6.9	1
2	1616	7	1
2	1617	7	1
2	1618	7	1
2	1619	7	1
2	1629	7.1	1
2	1630	7.1	1
2	1631	7.1	1
2	1632	7.1	1
2	1642	7.2	1
2	1643	7.2	1
2	1644	7.2	1
2	1645	7.2	1
2	1654	7.3	1
2	1655	7.3	1
2	1656	7.3	1
2	1657	7.3	1
2	1666	7.4	1
2	1667	7.4	1
2	1668	7.4	1
2	1669	7.4	1
2	1678	7.5	1
2	1679	7.5	1
2	1680	7.5	1
2	1681	7.5	1
2	1690	7.6	1
2	1691	7.6	1
2	1692	7.6	1
2	1693	7.6	1
2	1702	7.7	1
2	1703	7.7	1
2	1704	7.7	1
2	1705	7.7	1
2	1714	7.8	1
2	1715	7.8	1
2	1716	7.8	1
2	1717	7.8	1
2	1947	7.9	1
2	1948	7.9	1
2	1949	7.9	1
2	1950	7.9	1
2	1959	8	1
2	1960	8	1
2	1961	8	1
2	1962	8	1
2	1972	8.1	1
2	1973	8.1	1
2	1974	8.1	1
2	1975	8.1	1
2	1985	8.2	1
2	1986	8.2	1
2	1987	8.2	1
2	1988	8.2	1
2	1997	8.3	1
2	1998	8.3	1
2	1999	8.3	1
2	2000	8.3	1
2	2009	8.4	1
2	2010	8.4	1
2	2011	8.4	1
2	2012	8.4	1
2	2021	8.5	1
2	2022	8.5	1
2	2023	8.5	1
2	2024	8.5	1
2	2033	8.6	1
2	2034	8.6	1
2	2035	8.6	1
2	2036	8.6	1
2	2045	8.7	1
2	2046	8.7	1
2	2047	8.7	1
2	2048	8.7	1
2	2057	8.8	1
2	2058	8.8	1
2	2059	8.8	1
2	2060	8.8	1
2	2069	8.9	1
2	2070	8.9	1
2	2071	8.9	1
2	2072	8.9	1
2	2328	9	1
2	2329	9	1
2	2330	9	1
2	2331	9	1
2	2341	9.1	1
2	2342	9.1	1
2	2343	9.1	1
2	2344	9.1	1
2	2354	9.2	1
2	2355	9.2	1
2	2356	9.2	1
2	2357	9.2	1
2	2366	9.3	1
2	2367	9.3	1
2	2368	9.3	1
2	2369	9.3	1
2	2378	9.4	1
2	2379	9.4	1
2	2380	9.4	1
2	2381	9.4	1
2	2390	9.5	1
2	2391	9.5	1
2	2392	9.5	1
2	2393	9.5	1
2	2402	9.6	1
2	2403	9.6	1
2	2404	9.6	1
2	2405	9.6	1
2	2414	9.7	1
2	2415	9.7	1
2	2416	9.7	1
2	2417	9.7	1
2	2426	9.8	1
2	2427	9.8	1
2	2428	9.8	1
2	2429	9.8	1
2	2438	9.9	1
2	2439	9.9	1
2	2440	9.9	1
2	2441	9.9	1
2	2450	10	1
2	2451	10	1
2	2452	10	1
2	2453	10	1
2	2736	10.1	1
2	2737	10.1	1
2	2738	10.1	1
2	2739	10.1	1
2	2749	10.2	1
2	2750	10.2	1
2	2751	10.2	1
2	2752	10.2	1
2	2761	10.3	1
2	2762	10.3	1
2	2763	10.3	1
2	2764	10.3	1
2	2773	10.4	1
2	2774	10.4	1
2	2775	10.4	1
2	2776	10.4	1
2	2785	10.5	1
2	2786	10.5	1
2	2787	10.5	1
2	2788	10.5	1
2	2797	10.6	1
2	2798	10.6	1
2	2799	10.6	1
2	2800	10.6	1
2	2809	10.7	1
2	2810	10.7	1
2	2811	10.7	1
2	2812	10.7	1
2	2821	10.8	1
2	2822	10.8	1
2	2823	10.8	1
2	2824	10.8	1
2	2833	10.9	1
2	2834	10.9	1
2	2835	10.9	1
2	2836	10.9	1
2	2845	11	1
2	2846	11	1
2	2847	11	1
2	2848	11	1
2	2858	11.1	1
2	2859	11.1	1
2	2860	11.1	1
2	2861	11.1	1
2	3179	11.2	1
2	3180	11.2	1
2	3181	11.2	1
2	3182	11.2	1
2	3195	11.3	1
2	3196	11.3	1
2	3197	11.3	1
2	3198	11.3	1
2	3207	11.4	1
2	3208	11.4	1
2	3209	11.4	1
2	3210	11.4	1
2	3219	11.5	1
2	3220	11.5	1
2	3221	11.5	1
2	3222	11.5	1
2	3231	11.6	1
2	3232	11.6	1
2	3233	11.6	1
2	3234	11.6	1
2	3243	11.7	1
2	3244	11.7	1
2	3245	11.7	1
2	3246	11.7	1
2	3255	11.8	1
2	3256	11.8	1
2	3257	11.8	1
2	3258	11.8	1
2	3267	11.9	1
2	3268	11.9	1
2	3269	11.9	1
2	3270	11.9	1
2	3279	12	1
2	3280	12	1
2	3281	12	1
2	3282	12	1
2	3292	12.1	1
2	3293	12.1	1
2	3294	12.1	1
2	3295	12.1	1
2	3305	12.2	1
2	3306	12.2	1
2	3307	12.2	1
2	3308	12.2	1
2	3632	12.3	1
2	3633	12.3	1
2	3634	12.3	1
2	3635	12.3	1
2	3680	12.4	1
2	3681	12.4	1
2	3682	12.4	1
2	3683	12.4	1
2	3692	12.5	1
2	3693	12.5	1
2	3694	12.5	1
2	3695	12.5	1
2	3704	12.6	1
2	3705	12.6	1
2	3706	12.6	1
2	3707	12.6	1
2	3716	12.7	1
2	3717	12.7	1
2	3718	12.7	1
2	3719	12.7	1
2	3728	12.8	1
2	3729	12.8	1
2	3730	12.8	1
2	3731	12.8	1
2	3740	12.9	1
2	3741	12.9	1
2	3742	12.9	1
2	3743	12.9	1
2	3752	13	1
2	3753	13	1
2	3754	13	1
2	3755	13	1
2	3765	13.1	1
2	3766	13.1	1
2	3767	13.1	1
2	3768	13.1	1
2	3778	13.2	1
2	3779	13.2	1
2	3780	13.2	1
2	3781	13.2	1
2	3790	13.3	1
2	3791	13.3	1
2	3792	13.3	1
2	3793	13.3	1
2	4119	13.4	1
2	4120	13.4	1
2	4121	13.4	1
2	4122	13.4	1
2	4191	13.5	1
2	4192	13.5	1
2	4193	13.5	1
2	4194	13.5	1
2	4203	13.6	1
2	4204	13.6	1
2	4205	13.6	1
2	4206	13.6	1
2	4215	13.7	1
2	4216	13.7	1
2	4217	13.7	1
2	4218	13.7	1
2	4227	13.8	1
2	4228	13.8	1
2	4229	13.8	1
2	4230	13.8	1
2	4239	13.9	1
2	4240	13.9	1
2	4241	13.9	1
2	4242	13.9	1
2	4251	14	1
2	4252	14	1
2	4253	14	1
2	4254	14	1
2	4264	14.1	1
2	4265	14.1	1
2	4266	14.1	1
2	4267	14.1	1
2	4277	14.2	1
2	4278	14.2	1
2	4279	14.2	1
2	4280	14.2	1
2	4289	14.3	1
2	4290	14.3	1
2	4291	14.3	1
2	4292	14.3	1
2	4301	14.4	1
2	4302	14.4	1
2	4303	14.4	1
2	4304	14.4	1
2	4632	14.5	1
2	4633	14.5	1
2	4634	14.5	1
2	4635	14.5	1
2	4728	14.6	1
2	4729	14.6	1
2	4730	14.6	1
2	4731	14.6	1
2	4740	14.7	1
2	4741	14.7	1
2	4742	14.7	1
2	4743	14.7	1
2	4752	14.8	1
2	4753	14.8	1
2	4754	14.8	1
2	4755	14.8	1
2	4764	14.9	1
2	4765	14.9	1
2	4766	14.9	1
2	4767	14.9	1
2	4776	15	1
2	4777	15	1
2	4778	15	1
2	4779	15	1
3	188	1.21456	36
3	199	1.22	72
3	383	2.31456	108
3	384	2.31456	144
3	397	2.32	180
3	398	2.32	216
3	416	2.32544	252
3	612	3.41456	288
3	613	3.41456	324
3	626	3.42	360
3	627	3.42	396
3	640	3.42544	432
3	641	3.42544	468
3	659	3.43088	504
3	867	4.51456	540
3	868	4.51456	576
3	881	4.52	612
3	882	4.52	648
3	895	4.52544	684
3	896	4.52544	720
3	909	4.53088	756
3	910	4.53088	792
3	928	4.53632	828
3	1148	5.61456	864
3	1149	5.61456	900
3	1162	5.62	936
3	1163	5.62	972
3	1176	5.62544	1008
3	1177	5.62544	1044
3	1190	5.63088	1080
3	1191	5.63088	1116
3	1204	5.63632	1152
3	1205	5.63632	1188
3	1223	5.64176	1224
3	1455	6.71456	1260
3	1456	6.71456	1296
3	1469	6.72	1332
3	1470	6.72	1368
3	1483	6.72544	1404
3	1484	6.72544	1440
3	1497	6.73088	1476
3	1498	6.73088	1512
3	1511	6.73632	1548
3	1512	6.73632	1584
3	1525	6.74176	1620
3	1526	6.74176	1656
3	1544	6.7472	1692
3	1788	7.81456	1728
3	1789	7.81456	1764
3	1802	7.82	1800
3	1803	7.82	1836
3	1816	7.82544	1872
3	1817	7.82544	1908
3	1830	7.83088	1944
3	1831	7.83088	1980
3	1844	7.83632	2016
3	1845	7.83632	2052
3	1858	7.84176	2088
3	1859	7.84176	2124
3	1872	7.8472	2160
3	1873	7.8472	2196
3	1891	7.85264	2232
3	2147	8.91456	2268
3	2148	8.91456	2304
3	2161	8.92	2340
3	2162	8.92	2376
3	2175	8.92544	2412
3	2176	8.92544	2448
3	2189	8.93088	2484
3	2190	8.93088	2520
3	2203	8.93632	2556
3	2204	8.93632	2592
3	2217	8.94176	2628
3	2218	8.94176	2664
3	2231	8.9472	2700
3	2232	8.9472	2736
3	2245	8.95264	2772
3	2246	8.95264	2808
3	2264	8.95808	2844
3	2532	10.01456	2880
3	2533	10.01456	2916
3	2546	10.02	2952
3	2547	10.02	2988
3	2560	10.02544	3024
3	2561	10.02544	3060
3	2574	10.03088	3096
3	2575	10.03088	3132
3	2588	10.03632	3168
3	2589	10.03632	3204
3	2602	10.04176	3240
3	2603	10.04176	3276
3	2616	10.0472	3312
3	2617	10.0472	3348
3	2630	10.05264	3384
3	2631	10.05264	3420
3	2644	10.05808	3456
3	2645	10.05808	3492
3	2663	10.06352	3528
3	2947	11.11456	3564
3	2948	11.11456	3600
3	2961	11.12	3636
3	2962	11.12	3672
3	2975	11.12544	3708
3	2976	11.12544	3744
3	2989	11.13088	3780
3	2990	11.13088	3816
3	3003	11.13632	3852
3	3004	11.13632	3888
3	3017	11.14176	3924
3	3018	11.14176	3960
3	3031	11.1472	3996
3	3032	11.1472	4032
3	3045	11.15264	4068
3	3046	11.15264	4104
3	3059	11.15808	4140
3	3060	11.15808	4176
3	3073	11.16352	4212
3	3074	11.16352	4248
3	3092	11.16896	4284
3	3107	11.1744	4320
3	3399	12.21456	4356
3	3400	12.21456	4392
3	3413	12.22	4428
3	3414	12.22	4464
3	3427	12.22544	4500
3	3428	12.22544	4536
3	3441	12.23088	4572
3	3442	12.23088	4608
3	3455	12.23632	4644
3	3456	12.23632	4680
3	3469	12.24176	4716
3	3470	12.24176	4752
3	3483	12.2472	4788
3	3484	12.2472	4824
3	3497	12.25264	4860
3	3498	12.25264	4896
3	3511	12.25808	4932
3	3512	12.25808	4968
3	3525	12.26352	5004
3	3526	12.26352	5040
3	3539	12.26896	5076
3	3540	12.26896	5112
3	3553	12.2744	5148
3	3554	12.2744	5184
3	3572	12.27984	5220
3	3888	13.31456	5256
3	3889	13.31456	5292
3	3902	13.32	5328
3	3903	13.32	5364
3	3916	13.32544	5400
3	3917	13.32544	5436
3	3930	13.33088	5472
3	3931	13.33088	5508
3	3944	13.33632	5544
3	3945	13.33632	5580
3	3958	13.34176	5616
3	3959	13.34176	5652
3	3972	13.3472	5688
3	3973	13.3472	5724
3	3986	13.35264	5760
3	3987	13.35264	5796
3	4000	13.35808	5832
3	4001	13.35808	5868
3	4014	13.36352	5904
3	4015	13.36352	5940
3	4028	13.36896	5976
3	4029	13.36896	6012
3	4042	13.3744	6048
3	4043	13.3744	6084
3	4056	13.37984	6120
3	4057	13.37984	6156
3	4075	13.38528	6192
3	4403	14.41456	6228
3	4404	14.41456	6264
3	4417	14.42	6300
3	4418	14.42	6336
3	4431	14.42544	6372
3	4432	14.42544	6408
3	4445	14.43088	6444
3	4446	14.43088	6480
3	4459	14.43632	6516
3	4460	14.43632	6552
3	4473	14.44176	6588
3	4474	14.44176	6624
3	4487	14.4472	6660
3	4488	14.4472	6696
3	4501	14.45264	6732
3	4502	14.45264	6768
3	4515	14.45808	6804
3	4516	14.45808	6840
3	4529	14.46352	6876
3	4530	14.46352	6912
3	4543	14.46896	6948
3	4544	14.46896	6984
3	4557	14.4744	7020
3	4558	14.4744	7056
3	4571	14.47984	7092
3	4572	14.47984	7128
3	4585	14.48528	7164
3	4586	14.48528	7200
3	4604	14.49072	7236
4	188	1.21456	36
4	199	1.22	72
4	383	2.31456	108
4	384	2.31456	144
4	397	2.32	180
4	398	2.32	216
4	416	2.32544	252
4	612	3.41456	288
4	613	3.41456	324
4	626	3.42	360
4	627	3.42	396
4	640	3.42544	432
4	641	3.42544	468
4	659	3.43088	504
4	867	4.51456	540
4	868	4.51456	576
4	881	4.52	612
4	882	4.52	648
4	895	4.52544	684
4	896	4.52544	720
4	909	4.53088	756
4	910	4.53088	792
4	928	4.53632	828
4	1148	5.61456	864
4	1149	5.61456	900
4	1162	5.62	936
4	1163	5.62	972
4	1176	5.62544	1008
4	1177	5.62544	1044
4	1190	5.63088	1080
4	1191	5.63088	1116
4	1204	5.63632	1152
4	1205	5.63632	1188
4	1223	5.64176	1224
4	1455	6.71456	1260
4	1456	6.71456	1296
4	1469	6.72	1332
4	1470	6.72	1368
4	1483	6.72544	1404
4	1484	6.72544	1440
4	1497	6.73088	1476
4	1498	6.73088	1512
4	1511	6.73632	1548
4	1512	6.73632	1584
4	1525	6.74176	1620
4	1526	6.74176	1656
4	1544	6.7472	1692
4	1788	7.81456	1728
4	1789	7.81456	1764
4	1802	7.82	1800
4	1803	7.82	1836
4	1816	7.82544	1872
4	1817	7.82544	1908
4	1830	7.83088	1944
4	1831	7.83088	1980
4	1844	7.83632	2016
4	1845	7.83632	2052
4	1858	7.84176	2088
4	1859	7.84176	2124
4	1872	7.8472	2160
4	1873	7.8472	2196
4	1891	7.85264	2232
4	2147	8.91456	2268
4	2148	8.91456	2304
4	2161	8.92	2340
4	2162	8.92	2376
4	2175	8.92544	2412
4	2176	8.92544	2448
4	2189	8.93088	2484
4	2190	8.93088	2520
4	2203	8.93632	2556
4	2204	8.93632	2592
4	2217	8.94176	2628
4	2218	8.94176	2664
4	2231	8.9472	2700
4	2232	8.9472	2736
4	2245	8.95264	2772
4	2246	8.95264	2808
4	2264	8.95808	2844
4	2532	10.01456	2880
4	2533	10.01456	2916
4	2546	10.02	2952
4	2547	10.02	2988
4	2560	10.02544	3024
4	2561	10.02544	3060
4	2574	10.03088	3096
4	2575	10.03088	3132
4	2588	10.03632	3168
4	2589	10.03632	3204
4	2602	10.04176	3240
4	2603	10.04176	3276
4	2616	10.0472	3312
4	2617	10.0472	3348
4	2630	10.05264	3384
4	2631	10.05264	3420
4	2644	10.05808	3456
4	2645	10.05808	3492
4	2663	10.06352	3528
4	2947	11.11456	3564
4	2948	11.11456	3600
4	2961	11.12	3636
4	2962	11.12	3672
4	2975	11.12544	3708
4	2976	11.12544	3744
4	2989	11.13088	3780
4	2990	11.13088	3816
4	3003	11.13632	3852
4	3004	11.13632	3888
4	3017	11.14176	3924
4	3018	11.14176	3960
4	3031	11.1472	3996
4	3032	11.1472	4032
4	3045	11.15264	4068
4	3046	11.15264	4104
4	3059	11.15808	4140
4	3060	11.15808	4176
4	3073	11.16352	4212
4	3074	11.16352	4248
4	3092	11.16896	4284
4	3107	11.1744	4320
4	3399	12.21456	4356
4	3400	12.21456	4392
4	3413	12.22	4428
4	3414	12.22	4464
4	3427	12.22544	4500
4	3428	12.22544	4536
4	3441	12.23088	4572
4	3442	12.23088	4608
4	3455	12.23632	4644
4	3456	12.23632	4680
4	3469	12.24176	4716
4	3470	12.24176	4752
4	3483	12.2472	4788
4	3484	12.2472	4824
4	3497	12.25264	4860
4	3498	12.25264	4896
4	3511	12.25808	4932
4	3512	12.25808	4968
4	3525	12.26352	5004
4	3526	12.26352	5040
4	3539	12.26896	5076
4	3540	12.26896	5112
4	3553	12.2744	5148
4	3554	12.2744	5184
4	3572	12.27984	5220
4	3888	13.31456	5256
4	3889	13.31456	5292
4	3902	13.32	5328
4	3903	13.32	5364
4	3916	13.32544	5400
4	3917	13.32544	5436
4	3930	13.33088	5472
4	3931	13.33088	5508
4	3944	13.33632	5544
4	3945	13.33632	5580
4	3958	13.34176	5616
4	3959	13.34176	5652
4	3972	13.3472	5688
4	3973	13.3472	5724
4	3986	13.35264	5760
4	3987	13.35264	5796
4	4000	13.35808	5832
4	4001	13.35808	5868
4	4014	13.36352	5904
4	4015	13.36352	5940
4	4028	13.36896	5976
4	4029	13.36896	6012
4	4042	13.3744	6048
4	4043	13.3744	6084
4	4056	13.37984	6120
4	4057	13.37984	6156
4	4075	13.38528	6192
4	4403	14.41456	6228
4	4404	14.41456	6264
4	4417	14.42	6300
4	4418	14.42	6336
4	4431	14.42544	6372
4	4432	14.42544	6408
4	4445	14.43088	6444
4	4446	14.43088	6480
4	4459	14.43632	6516
4	4460	14.43632	6552
4	4473	14.44176	6588
4	4474	14.44176	6624
4	4487	14.4472	6660
4	4488	14.4472	6696
4	4501	14.45264	6732
4	4502	14.45264	6768
4	4515	14.45808	6804
4	4516	14.45808	6840
4	4529	14.46352	6876
4	4530	14.46352	6912
4	4543	14.46896	6948
4	4544	14.46896	6984
4	4557	14.4744	7020
4	4558	14.4744	7056
4	4571	14.47984	7092
4	4572	14.47984	7128
4	4585	14.48528	7164
4	4586	14.48528	7200
4	4604	14.49072	7236
5	190	1.21456	10
5	201	1.22	20
5	418	2.32544	30
5	661	3.43088	40
5	1225	5.64176	50
5	1893	7.85264	60
5	2665	10.06352	70
5	3094	11.16896	80
5	3109	11.1744	90
5	3574	12.27984	100
5	4077	13.38528	110
5	4606	14.49072	120
6	190	1.21456	1.11456
6	201	1.22	0.12
6	418	2.32544	0.22544
6	661	3.43088	0.33088
6	930	4.53632	0.43632
6	1225	5.64176	0.54176
6	1546	6.7472	0.6472
6	1893	7.85264	0.75264
6	2266	8.95808	0.85808
6	2665	10.06352	0.96352
6	3094	11.16896	1.06896
6	3109	11.1744	0.0744
6	3574	12.27984	0.17984
6	4077	13.38528	0.28528
6	4606	14.49072	0.39072
7	386	2.31456	10
7	388	2.31456	20
7	400	2.32	30
7	402	2.32	40
7	615	3.41456	50
7	617	3.41456	60
7	629	3.42	70
7	631	3.42	80
7	643	3.42544	90
7	645	3.42544	100
7	870	4.51456	110
7	872	4.51456	120
7	884	4.52	130
7	886	4.52	140
7	898	4.52544	150
7	900	4.52544	160
7	912	4.53088	170
7	914	4.53088	180
7	1151	5.61456	190
7	1153	5.61456	200
7	1165	5.62	210
7	1167	5.62	220
7	1179	5.62544	230
7	1181	5.62544	240
7	1193	5.63088	250
7	1195	5.63088	260
7	1207	5.63632	270
7	1209	5.63632	280
7	1458	6.71456	290
7	1460	6.71456	300
7	1472	6.72	310
7	1474	6.72	320
7	1486	6.72544	330
7	1488	6.72544	340
7	1500	6.73088	350
7	1502	6.73088	360
7	1514	6.73632	370
7	1516	6.73632	380
7	1528	6.74176	390
7	1530	6.74176	400
7	1791	7.81456	410
7	1793	7.81456	420
7	1805	7.82	430
7	1807	7.82	440
7	1819	7.82544	450
7	1821	7.82544	460
7	1833	7.83088	470
7	1835	7.83088	480
7	1847	7.83632	490
7	1849	7.83632	500
7	1861	7.84176	510
7	1863	7.84176	520
7	1875	7.8472	530
7	1877	7.8472	540
7	2150	8.91456	550
7	2152	8.91456	560
7	2164	8.92	570
7	2166	8.92	580
7	2178	8.92544	590
7	2180	8.92544	600
7	2192	8.93088	610
7	2194	8.93088	620
7	2206	8.93632	630
7	2208	8.93632	640
7	2220	8.94176	650
7	2222	8.94176	660
7	2234	8.9472	670
7	2236	8.9472	680
7	2248	8.95264	690
7	2250	8.95264	700
7	2535	10.01456	710
7	2537	10.01456	720
7	2549	10.02	730
7	2551	10.02	740
7	2563	10.02544	750
7	2565	10.02544	760
7	2577	10.03088	770
7	2579	10.03088	780
7	2591	10.03632	790
7	2593	10.03632	800
7	2605	10.04176	810
7	2607	10.04176	820
7	2619	10.0472	830
7	2621	10.0472	840
7	2633	10.05264	850
7	2635	10.05264	860
7	2647	10.05808	870
7	2649	10.05808	880
7	2950	11.11456	890
7	2952	11.11456	900
7	2964	11.12	910
7	2966	11.12	920
7	2978	11.12544	930
7	2980	11.12544	940
7	2992	11.13088	950
7	2994	11.13088	960
7	3006	11.13632	970
7	3008	11.13632	980
7	3020	11.14176	990
7	3022	11.14176	1000
7	3034	11.1472	1010
7	3036	11.1472	1020
7	3048	11.15264	1030
7	3050	11.15264	1040
7	3062	11.15808	1050
7	3064	11.15808	1060
7	3076	11.16352	1070
7	3078	11.16352	1080
7	3402	12.21456	1090
7	3404	12.21456	1100
7	3416	12.22	1110
7	3418	12.22	1120
7	3430	12.22544	1130
7	3432	12.22544	1140
7	3444	12.23088	1150
7	3446	12.23088	1160
7	3458	12.23632	1170
7	3460	12.23632	1180
7	3472	12.24176	1190
7	3474	12.24176	1200
7	3486	12.2472	1210
7	3488	12.2472	1220
7	3500	12.25264	1230
7	3502	12.25264	1240
7	3514	12.25808	1250
7	3516	12.25808	1260
7	3528	12.26352	1270
7	3530	12.26352	1280
7	3542	12.26896	1290
7	3544	12.26896	1300
7	3556	12.2744	1310
7	3558	12.2744	1320
7	3891	13.31456	1330
7	3893	13.31456	1340
7	3905	13.32	1350
7	3907	13.32	1360
7	3919	13.32544	1370
7	3921	13.32544	1380
7	3933	13.33088	1390
7	3935	13.33088	1400
7	3947	13.33632	1410
7	3949	13.33632	1420
7	3961	13.34176	1430
7	3963	13.34176	1440
7	3975	13.3472	1450
7	3977	13.3472	1460
7	3989	13.35264	1470
7	3991	13.35264	1480
7	4003	13.35808	1490
7	4005	13.35808	1500
7	4017	13.36352	1510
7	4019	13.36352	1520
7	4031	13.36896	1530
7	4033	13.36896	1540
7	4045	13.3744	1550
7	4047	13.3744	1560
7	4059	13.37984	1570
7	4061	13.37984	1580
7	4406	14.41456	1590
7	4408	14.41456	1600
7	4420	14.42	1610
7	4422	14.42	1620
7	4434	14.42544	1630
7	4436	14.42544	1640
7	4448	14.43088	1650
7	4450	14.43088	1660
7	4462	14.43632	1670
7	4464	14.43632	1680
7	4476	14.44176	1690
7	4478	14.44176	1700
7	4490	14.4472	1710
7	4492	14.4472	1720
7	4504	14.45264	1730
7	4506	14.45264	1740
7	4518	14.45808	1750
7	4520	14.45808	1760
7	4532	14.46352	1770
7	4534	14.46352	1780
7	4546	14.46896	1790
7	4548	14.46896	1800
7	4560	14.4744	1810
7	4562	14.4744	1820
7	4574	14.47984	1830
7	4576	14.47984	1840
7	4588	14.48528	1850
7	4590	14.48528	1860
8	755	4.1	20
8	1311	6.1	40
8	1971	8.1	60
9	930	4.53632	10
9	1546	6.7472	20
9	2266	8.95808	30

